# Molecule Name
# Created by GaussView 5.0.9
#

#
#

@<TRIPOS>MOLECULE
Molecule Name
9 8
SMALL
NO_CHARGES


@<TRIPOS>ATOM
1 C1     0.3755     0.6675     0.1287 C
2 H2     0.6109    -0.1824     0.7346 H
3 C3    -1.1333     0.6761    -0.1797 C
4 H4    -1.3953    -0.2191    -0.7039 H
5 H5    -1.6842     0.7273     0.7362 H
6 H6    -1.3687     1.5261    -0.7855 H
7 F7     0.7061     1.7971     0.7899 F
8 O8     1.1118     0.5989    -1.0954 O
9 H9     1.6332    -0.2070    -1.1108 H
@<TRIPOS>BOND
1 1 2 1
2 1 3 1
3 1 7 1
4 1 8 1
5 3 4 1
6 3 5 1
7 3 6 1
8 8 9 1
