# Title
# Created by GaussView 6.0.16
#

#
#

@<TRIPOS>MOLECULE
Molecule Name
22 23
SMALL
NO_CHARGES


@<TRIPOS>ATOM
1 C1    -2.9027    -0.7059     0.5767 C
2 C2    -1.5094    -0.7780     0.5762 C
3 C3    -0.7689     0.0393    -0.2775 C
4 C4    -1.4218     0.9284    -1.1322 C
5 C5    -2.8147     1.0001    -1.1321 C
6 C6    -3.5553     0.1832    -0.2773 C
7 H7    -3.4863    -1.3501     1.2501 H
8 H8    -0.8377     1.5727    -1.8053 H
9 H9    -3.3296     1.7007    -1.8055 H
10 H10    -4.6534     0.2400    -0.2772 H
11 C11     0.7689    -0.0393    -0.2775 C
12 C12     1.4218    -0.9284    -1.1322 C
13 C13     1.5094     0.7780     0.5762 C
14 C14     2.8147    -1.0001    -1.1321 C
15 H15     0.8377    -1.5727    -1.8053 H
16 C16     2.9027     0.7059     0.5767 C
17 C17     3.5553    -0.1832    -0.2773 C
18 H18     3.3296    -1.7007    -1.8055 H
19 H19     3.4863     1.3501     1.2501 H
20 H20     4.6534    -0.2400    -0.2772 H
21 F21     0.8778     1.6379     1.4036 F
22 F22    -0.8778    -1.6379     1.4036 F
@<TRIPOS>BOND
1 1 2 Ar
2 1 6 Ar
3 1 7 1
4 2 3 Ar
5 2 22 1
6 3 4 Ar
7 3 11 1
8 4 5 Ar
9 4 8 1
10 5 6 Ar
11 5 9 1
12 6 10 1
13 11 12 Ar
14 11 13 Ar
15 12 14 Ar
16 12 15 1
17 13 16 Ar
18 13 21 1
19 14 17 Ar
20 14 18 1
21 16 17 Ar
22 16 19 1
23 17 20 1
