<<<<<<< HEAD
# Title
# Created by GaussView 6.0.16
#

#
#

@<TRIPOS>MOLECULE
Molecule Name
13 12
SMALL
NO_CHARGES


@<TRIPOS>ATOM
1 C1     0.0000    -0.0000     0.4469 C
2 C2     0.4356    -1.2833     0.4469 C
3 H3     1.2284    -1.5830     1.1000 H
4 C4    -0.4356     1.2833     0.4469 C
5 H5    -1.2284     1.5830     1.1000 H
6 C6    -0.2126    -2.3137    -0.4963 C
7 H7     0.2553    -3.2662    -0.3596 H
8 H8    -1.2562    -2.3938    -0.2740 H
9 H9    -0.0873    -1.9970    -1.5107 H
10 C10     0.2126     2.3137    -0.4963 C
11 H11     0.0873     1.9970    -1.5107 H
12 H12    -0.2553     3.2662    -0.3596 H
13 H13     1.2562     2.3938    -0.2740 H
@<TRIPOS>BOND
1 1 2 2
2 1 4 2
3 2 3 1
4 2 6 1
5 4 5 1
6 4 10 1
7 6 7 1
8 6 8 1
9 6 9 1
10 10 11 1
11 10 12 1
12 10 13 1
=======
# Title
# Created by GaussView 6.0.16
#

#
#

@<TRIPOS>MOLECULE
Molecule Name
13 12
SMALL
NO_CHARGES


@<TRIPOS>ATOM
1 C1     0.0000    -0.0000     0.4469 C
2 C2     0.4356    -1.2833     0.4469 C
3 H3     1.2284    -1.5830     1.1000 H
4 C4    -0.4356     1.2833     0.4469 C
5 H5    -1.2284     1.5830     1.1000 H
6 C6    -0.2126    -2.3137    -0.4963 C
7 H7     0.2553    -3.2662    -0.3596 H
8 H8    -1.2562    -2.3938    -0.2740 H
9 H9    -0.0873    -1.9970    -1.5107 H
10 C10     0.2126     2.3137    -0.4963 C
11 H11     0.0873     1.9970    -1.5107 H
12 H12    -0.2553     3.2662    -0.3596 H
13 H13     1.2562     2.3938    -0.2740 H
@<TRIPOS>BOND
1 1 2 2
2 1 4 2
3 2 3 1
4 2 6 1
5 4 5 1
6 4 10 1
7 6 7 1
8 6 8 1
9 6 9 1
10 10 11 1
11 10 12 1
12 10 13 1
>>>>>>> 19ef694db57601665babb734ffa2d7b482024d9f
