@<TRIPOS>MOLECULE
****
36 40 1 0 0
SMALL
USER_CHARGES


@<TRIPOS>ATOM
      1 C          -3.3501    0.6732    0.1291 C.ar      1     ****    0.0000
      2 C          -2.1158    1.3878    0.2082 C.ar      1     ****    0.0000
      3 C          -0.9035    0.7226   -0.0061 C.ar      1     ****    0.0000
      4 C          -0.9058   -0.7201   -0.0070 C.ar      1     ****    0.0000
      5 C          -2.1171   -1.3814   -0.2387 C.ar      1     ****    0.0000
      6 C          -3.3500   -0.6624   -0.1765 C.ar      1     ****    0.0000
      7 C          -2.1344    2.7980    0.4942 C.ar      1     ****    0.0000
      8 C          -0.9826    3.5270    0.4680 C.ar      1     ****    0.0000
      9 C           0.2403    2.9162    0.0190 C.ar      1     ****    0.0000
     10 C           0.2625    1.5432   -0.2864 C.ar      1     ****    0.0000
     11 C           1.3998    3.7142   -0.1696 C.ar      1     ****    0.0000
     12 C           2.5320    3.1742   -0.7442 C.ar      1     ****    0.0000
     13 C           2.5134    1.8364   -1.1934 C.ar      1     ****    0.0000
     14 C           1.3951    1.0512   -0.9919 C.ar      1     ****    0.0000
     15 C           0.2536   -1.5440    0.2902 C.ar      1     ****    0.0000
     16 C           0.2321   -2.9170   -0.0155 C.ar      1     ****    0.0000
     17 C          -0.9861   -3.5242   -0.4818 C.ar      1     ****    0.0000
     18 C          -2.1353   -2.7917   -0.5246 C.ar      1     ****    0.0000
     19 C           1.3776   -1.0553    1.0115 C.ar      1     ****    0.0000
     20 C           2.4910   -1.8435    1.2282 C.ar      1     ****    0.0000
     21 C           2.5117   -3.1818    0.7804 C.ar      1     ****    0.0000
     22 C           1.3864   -3.7185    0.1896 C.ar      1     ****    0.0000
     23 H          -4.3006    1.1951    0.3135 H         1     ****    0.0000
     24 H          -4.2996   -1.1813   -0.3740 H         1     ****    0.0000
     25 H          -3.0868    3.2923    0.7362 H         1     ****    0.0000
     26 H          -0.9882    4.5790    0.7892 H         1     ****    0.0000
     27 H           1.3952    4.7685    0.1441 H         1     ****    0.0000
     28 H           3.4426    3.7819   -0.8514 H         1     ****    0.0000
     29 H           3.3923    1.4177   -1.7056 H         1     ****    0.0000
     30 H           1.3802    0.0240   -1.3853 H         1     ****    0.0000
     31 H          -0.9903   -4.5763   -0.8028 H         1     ****    0.0000
     32 H          -3.0855   -3.2835   -0.7801 H         1     ****    0.0000
     33 H           1.3599   -0.0283    1.4050 H         1     ****    0.0000
     34 H           3.3643   -1.4269    1.7514 H         1     ****    0.0000
     35 H           3.4185   -3.7926    0.9016 H         1     ****    0.0000
     36 H           1.3832   -4.7728   -0.1243 H         1     ****    0.0000
@<TRIPOS>BOND
     1     1     2     1
     2     1     6     2
     3     1    23     1
     4     2     3     2
     5     2     7     1
     6     3     4     1
     7     3    10     1
     8     4     5     2
     9     4    15     1
    10     5     6     1
    11     5    18     1
    12     6    24     1
    13     7     8     2
    14     7    25     1
    15     8     9     1
    16     8    26     1
    17     9    10     2
    18     9    11     1
    19    10    14     1
    20    11    12     2
    21    11    27     1
    22    12    13     1
    23    12    28     1
    24    13    14     2
    25    13    29     1
    26    14    30     1
    27    15    16     2
    28    15    19     1
    29    16    17     1
    30    16    22     1
    31    17    18     2
    32    17    31     1
    33    18    32     1
    34    19    20     2
    35    19    33     1
    36    20    21     1
    37    20    34     1
    38    21    22     2
    39    21    35     1
    40    22    36     1
