<<<<<<< HEAD
# http://pg.minglab.cn/static/model/10_cis-1_3-Butadiene_AV.mol
# Created by GaussView 5.0.9
#

#
#

@<TRIPOS>MOLECULE
Molecule Name
10 9
SMALL
NO_CHARGES


@<TRIPOS>ATOM
1 C1    -2.6172    -3.6937    -0.1396 C
2 C2    -1.3311    -3.9415     0.1337 C
3 C3    -0.2438    -3.0307    -0.1294 C
4 C4    -0.2693    -1.7167     0.1239 C
5 H5     0.6684    -3.4802    -0.5170 H
6 H6    -1.1427    -1.2272     0.5428 H
7 H7     0.5995    -1.0989    -0.0795 H
8 H8    -2.9434    -2.7553    -0.5764 H
9 H9    -3.3782    -4.4399     0.0651 H
10 H10    -1.0503    -4.9117     0.5392 H
@<TRIPOS>BOND
1 1 2 2
2 1 8 1
3 1 9 1
4 2 3 1
5 2 10 1
6 3 4 2
7 3 5 1
8 4 6 1
9 4 7 1
=======
# http://pg.minglab.cn/static/model/10_cis-1_3-Butadiene_AV.mol
# Created by GaussView 5.0.9
#

#
#

@<TRIPOS>MOLECULE
Molecule Name
10 9
SMALL
NO_CHARGES


@<TRIPOS>ATOM
1 C1    -2.6172    -3.6937    -0.1396 C
2 C2    -1.3311    -3.9415     0.1337 C
3 C3    -0.2438    -3.0307    -0.1294 C
4 C4    -0.2693    -1.7167     0.1239 C
5 H5     0.6684    -3.4802    -0.5170 H
6 H6    -1.1427    -1.2272     0.5428 H
7 H7     0.5995    -1.0989    -0.0795 H
8 H8    -2.9434    -2.7553    -0.5764 H
9 H9    -3.3782    -4.4399     0.0651 H
10 H10    -1.0503    -4.9117     0.5392 H
@<TRIPOS>BOND
1 1 2 2
2 1 8 1
3 1 9 1
4 2 3 1
5 2 10 1
6 3 4 2
7 3 5 1
8 4 6 1
9 4 7 1
>>>>>>> 19ef694db57601665babb734ffa2d7b482024d9f
