<<<<<<< HEAD
# Title
# Created by GaussView 6.0.16
#

#
#

@<TRIPOS>MOLECULE
Molecule Name
16 17
SMALL
NO_CHARGES


@<TRIPOS>ATOM
1 C1    -4.8237    -1.3950     0.0003 C
2 C2    -3.4509    -1.3950     0.0003 C
3 C3    -2.7290    -0.1699     0.0003 C
4 C4    -3.4468     1.0540     0.0006 C
5 C5    -5.5398    -0.1733     0.0005 C
6 H6    -5.3844    -2.3413     0.0002 H
7 H7    -2.8861    -2.3393     0.0000 H
8 C8    -2.7241     2.2787     0.0007 C
9 H9    -6.6394    -0.1997     0.0006 H
10 C10    -1.3512     2.2788     0.0005 C
11 C11    -0.6352     1.0569     0.0000 C
12 H12    -3.2885     3.2233     0.0010 H
13 H13    -0.7905     3.2251     0.0003 H
14 H14     0.4644     1.0834    -0.0002 H
15 N15    -1.3072    -0.1403     0.0000 N
16 N16    -4.8683     1.0246     0.0008 N
@<TRIPOS>BOND
1 1 2 Ar
2 1 5 Ar
3 1 6 1
4 2 3 Ar
5 2 7 1
6 3 4 Ar
7 3 15 Ar
8 4 8 Ar
9 4 16 Ar
10 5 9 1
11 5 16 Ar
12 8 10 Ar
13 8 12 1
14 10 11 Ar
15 10 13 1
16 11 14 1
17 11 15 Ar
=======
# Title
# Created by GaussView 6.0.16
#

#
#

@<TRIPOS>MOLECULE
Molecule Name
16 17
SMALL
NO_CHARGES


@<TRIPOS>ATOM
1 C1    -4.8237    -1.3950     0.0003 C
2 C2    -3.4509    -1.3950     0.0003 C
3 C3    -2.7290    -0.1699     0.0003 C
4 C4    -3.4468     1.0540     0.0006 C
5 C5    -5.5398    -0.1733     0.0005 C
6 H6    -5.3844    -2.3413     0.0002 H
7 H7    -2.8861    -2.3393     0.0000 H
8 C8    -2.7241     2.2787     0.0007 C
9 H9    -6.6394    -0.1997     0.0006 H
10 C10    -1.3512     2.2788     0.0005 C
11 C11    -0.6352     1.0569     0.0000 C
12 H12    -3.2885     3.2233     0.0010 H
13 H13    -0.7905     3.2251     0.0003 H
14 H14     0.4644     1.0834    -0.0002 H
15 N15    -1.3072    -0.1403     0.0000 N
16 N16    -4.8683     1.0246     0.0008 N
@<TRIPOS>BOND
1 1 2 Ar
2 1 5 Ar
3 1 6 1
4 2 3 Ar
5 2 7 1
6 3 4 Ar
7 3 15 Ar
8 4 8 Ar
9 4 16 Ar
10 5 9 1
11 5 16 Ar
12 8 10 Ar
13 8 12 1
14 10 11 Ar
15 10 13 1
16 11 14 1
17 11 15 Ar
>>>>>>> 19ef694db57601665babb734ffa2d7b482024d9f
