# Title
# Created by GaussView 6.0.16
#

#
#

@<TRIPOS>MOLECULE
Molecule Name
24 24
SMALL
NO_CHARGES


@<TRIPOS>ATOM
1 C1    -0.0000     0.0000    -2.0545 C
2 C2     0.2874    -1.2599    -1.2649 C
3 C3    -0.2874     1.2599     1.2649 C
4 C4    -0.5309    -1.4403     0.0000 C
5 C5    -0.0000     0.0000     2.0545 C
6 C6     0.2874    -1.2599     1.2649 C
7 H7    -0.8819    -0.1887    -2.7260 H
8 H8     1.3836    -1.2906    -1.0210 H
9 H9    -1.4034    -0.7370     0.0000 H
10 H10    -1.3836     1.2906     1.0210 H
11 H11    -0.8819    -0.1887     2.7260 H
12 H12     0.8819     0.1887    -2.7260 H
13 H13     0.0975    -2.1357    -1.9443 H
14 H14    -0.0975     2.1357     1.9443 H
15 H15    -0.9584    -2.4793     0.0000 H
16 H16     0.8819     0.1887     2.7260 H
17 H17     0.0975    -2.1357     1.9443 H
18 H18     1.3836    -1.2906     1.0210 H
19 C19    -0.2874     1.2599    -1.2649 C
20 H20    -1.3836     1.2906    -1.0210 H
21 H21    -0.0975     2.1357    -1.9443 H
22 C22     0.5309     1.4403     0.0000 C
23 H23     1.4034     0.7370     0.0000 H
24 H24     0.9584     2.4793     0.0000 H
@<TRIPOS>BOND
1 1 2 1
2 1 7 1
3 1 12 1
4 1 19 1
5 2 4 1
6 2 8 1
7 2 13 1
8 3 5 1
9 3 10 1
10 3 14 1
11 3 22 1
12 4 6 1
13 4 9 1
14 4 15 1
15 5 6 1
16 5 11 1
17 5 16 1
18 6 17 1
19 6 18 1
20 19 20 1
21 19 21 1
22 19 22 1
23 22 23 1
24 22 24 1
