# http://pg.minglab.cn/static/model/10_trans-1_3-Butadiene_AV.mol
# Created by GaussView 5.0.9
#

#
#

@<TRIPOS>MOLECULE
Molecule Name
10 9
SMALL
NO_CHARGES


@<TRIPOS>ATOM
1 C1    -4.0829    -1.1934    -0.0000 C
2 C2    -2.7454    -1.2160    -0.0000 C
3 C3    -1.9414    -0.0193    -0.0000 C
4 C4    -0.6036    -0.0410    -0.0000 C
5 H5    -2.4549     0.9400     0.0000 H
6 H6    -0.0401    -0.9686    -0.0000 H
7 H7    -0.0382     0.8856     0.0000 H
8 H8    -4.6489    -2.1196    -0.0000 H
9 H9    -4.6459    -0.2655    -0.0000 H
10 H10    -2.2321    -2.1754    -0.0000 H
@<TRIPOS>BOND
1 1 2 2
2 1 8 1
3 1 9 1
4 2 3 1
5 2 10 1
6 3 4 2
7 3 5 1
8 4 6 1
9 4 7 1
