<<<<<<< HEAD
# 12511
# Created by GaussView 6.0.16
#

#
#

@<TRIPOS>MOLECULE
Molecule Name
16 16
SMALL
NO_CHARGES


@<TRIPOS>ATOM
1 O1     0.2438     2.6101     0.0000 O
2 O2    -0.2438    -2.6101     0.0000 O
3 C3     0.3510    -0.6735    -1.2849 C
4 C4    -0.3510     0.6735    -1.2849 C
5 C5     0.3510    -0.6735     1.2849 C
6 C6    -0.3510     0.6735     1.2849 C
7 C7    -0.0806     1.4237     0.0000 C
8 C8     0.0806    -1.4237     0.0000 C
9 H9     1.4360    -0.5473    -1.3718 H
10 H10     0.0092    -1.2746    -2.1338 H
11 H11    -0.0092     1.2746    -2.1338 H
12 H12    -1.4360     0.5473    -1.3718 H
13 H13     1.4360    -0.5473     1.3718 H
14 H14     0.0092    -1.2746     2.1338 H
15 H15    -1.4360     0.5473     1.3718 H
16 H16    -0.0092     1.2746     2.1338 H
@<TRIPOS>BOND
1 1 7 2
2 2 8 2
3 3 4 1
4 3 8 1
5 3 9 1
6 3 10 1
7 4 7 1
8 4 11 1
9 4 12 1
10 5 6 1
11 5 8 1
12 5 13 1
13 5 14 1
14 6 7 1
15 6 15 1
16 6 16 1
=======
# 12511
# Created by GaussView 6.0.16
#

#
#

@<TRIPOS>MOLECULE
Molecule Name
16 16
SMALL
NO_CHARGES


@<TRIPOS>ATOM
1 O1     0.2438     2.6101     0.0000 O
2 O2    -0.2438    -2.6101     0.0000 O
3 C3     0.3510    -0.6735    -1.2849 C
4 C4    -0.3510     0.6735    -1.2849 C
5 C5     0.3510    -0.6735     1.2849 C
6 C6    -0.3510     0.6735     1.2849 C
7 C7    -0.0806     1.4237     0.0000 C
8 C8     0.0806    -1.4237     0.0000 C
9 H9     1.4360    -0.5473    -1.3718 H
10 H10     0.0092    -1.2746    -2.1338 H
11 H11    -0.0092     1.2746    -2.1338 H
12 H12    -1.4360     0.5473    -1.3718 H
13 H13     1.4360    -0.5473     1.3718 H
14 H14     0.0092    -1.2746     2.1338 H
15 H15    -1.4360     0.5473     1.3718 H
16 H16    -0.0092     1.2746     2.1338 H
@<TRIPOS>BOND
1 1 7 2
2 2 8 2
3 3 4 1
4 3 8 1
5 3 9 1
6 3 10 1
7 4 7 1
8 4 11 1
9 4 12 1
10 5 6 1
11 5 8 1
12 5 13 1
13 5 14 1
14 6 7 1
15 6 15 1
16 6 16 1
>>>>>>> 19ef694db57601665babb734ffa2d7b482024d9f
