# generated by VMD
# Created by GaussView 6.0.16
#

#
#

@<TRIPOS>MOLECULE
Molecule Name
14 13
SMALL
NO_CHARGES


@<TRIPOS>ATOM
1 O1     1.9424    -1.3191     0.0000 O
2 O2    -1.9424     1.3191     0.0000 O
3 N3     0.5316     0.4123     0.0000 N
4 N4     2.8656     0.7044     0.0000 N
5 N5    -0.5316    -0.4123     0.0000 N
6 N6    -2.8656    -0.7044     0.0000 N
7 C7     1.7868    -0.1236     0.0000 C
8 C8    -1.7868     0.1236     0.0000 C
9 H9     0.3873     1.4124     0.0000 H
10 H10     3.7693     0.2549     0.0000 H
11 H11     2.7283     1.7051     0.0000 H
12 H12    -0.3873    -1.4124     0.0000 H
13 H13    -3.7693    -0.2549     0.0000 H
14 H14    -2.7283    -1.7051     0.0000 H
@<TRIPOS>BOND
1 1 7 2
2 2 8 2
3 3 5 1
4 3 7 Ar
5 3 9 1
6 4 7 Ar
7 4 10 1
8 4 11 1
9 5 8 Ar
10 5 12 1
11 6 8 Ar
12 6 13 1
13 6 14 1
