# Title
# Created by GaussView 6.0.16
#

#
#

@<TRIPOS>MOLECULE
Molecule Name
6 5
SMALL
NO_CHARGES


@<TRIPOS>ATOM
1 N1    -1.7447     1.0187     0.0000 N
2 H2    -1.4114     0.0759     0.0000 H
3 H3    -1.4114     1.4901    -0.8165 H
4 N4    -1.2781     1.6787     1.1431 N
5 H5    -0.7225     1.0501     1.6874 H
6 H6    -0.7225     2.4644     0.8709 H
@<TRIPOS>BOND
1 1 2 1
2 1 3 1
3 1 4 1
4 4 5 1
5 4 6 1
