# http://pg.minglab.cn/static/model/5_dichloromethane_AV.mol
# Created by GaussView 5.0.9
#

#
#

@<TRIPOS>MOLECULE
Molecule Name
5 4
SMALL
NO_CHARGES


@<TRIPOS>ATOM
1 C1     2.9423     2.2835    -1.9170 C
2 Cl2     1.6825     1.3699    -1.0795 Cl
3 H3     2.4758     2.9286    -2.6655 H
4 Cl4     4.0856     1.2025    -2.7215 Cl
5 H5     3.4821     2.8942    -1.1892 H
@<TRIPOS>BOND
1 1 2 1
2 1 3 1
3 1 4 1
4 1 5 1
