# http://pg.minglab.cn/static/model/16_hydroquinone_AV.mol
# Created by GaussView 5.0.9
#

#
#

@<TRIPOS>MOLECULE
Molecule Name
14 14
SMALL
NO_CHARGES


@<TRIPOS>ATOM
1 C1    -1.5199    -5.5331    -3.1592 C
2 C2    -2.3583    -4.4208    -3.1781 C
3 C3    -1.8354    -3.1322    -3.2065 C
4 C4    -0.4528    -2.9500    -3.2163 C
5 C5     0.3865    -4.0590    -3.1974 C
6 C6    -0.1348    -5.3506    -3.1689 C
7 H7     0.5161    -6.2187    -3.1542 H
8 H8    -1.9233    -6.5404    -3.1370 H
9 H9    -0.0333    -1.9486    -3.2385 H
10 O10     1.7317    -3.8366    -3.2079 O
11 O11    -3.7152    -4.5545    -3.1694 O
12 H12    -2.5002    -2.2737    -3.2210 H
13 H13    -3.9346    -5.5001    -3.1494 H
14 H14     2.1888    -4.6930    -3.1926 H
@<TRIPOS>BOND
1 1 2 Ar
2 1 6 Ar
3 1 8 1
4 2 3 Ar
5 2 11 1
6 3 4 Ar
7 3 12 1
8 4 5 Ar
9 4 9 1
10 5 6 Ar
11 5 10 1
12 6 7 1
13 10 14 1
14 11 13 1
