# http://pg.minglab.cn/static/model/12_phenanthrene_AV.mol
# Created by GaussView 5.0.9
#

#
#

@<TRIPOS>MOLECULE
Molecule Name
24 26
SMALL
NO_CHARGES


@<TRIPOS>ATOM
1 C1    -0.3046    -0.6730    -0.5510 C
2 C2    -1.2561    -1.7247    -0.5384 C
3 C3    -2.6338    -1.4856    -0.5463 C
4 C4    -3.1093    -0.1836    -0.5673 C
5 C5    -2.2068     0.8763    -0.5802 C
6 C6    -0.8198     0.6488    -0.5724 C
7 H7    -2.5977     1.8916    -0.5967 H
8 H8    -3.3293    -2.3207    -0.5360 H
9 H9    -4.1784     0.0094    -0.5735 H
10 H10    -0.9372    -2.7628    -0.5218 H
11 C11     1.1229    -0.8710    -0.5435 C
12 C12     0.0548     1.7383    -0.5859 C
13 C13     1.4336     1.5471    -0.5786 C
14 C14     1.9786     0.2607    -0.5577 C
15 C15     1.7522    -2.1419    -0.5225 C
16 C16     3.3751     0.1022    -0.5509 C
17 C17     3.1430    -2.2867    -0.5159 C
18 C18     3.9549    -1.1634    -0.5301 C
19 H19    -0.3296     2.7559    -0.6024 H
20 H20     2.0806     2.4217    -0.5897 H
21 H21     4.0276     0.9729    -0.5619 H
22 H22     1.1627    -3.0540    -0.5108 H
23 H23     3.5847    -3.2795    -0.4997 H
24 H24     5.0362    -1.2685    -0.5251 H
@<TRIPOS>BOND
1 1 2 Ar
2 1 6 Ar
3 1 11 Ar
4 2 3 Ar
5 2 10 1
6 3 4 Ar
7 3 8 1
8 4 5 Ar
9 4 9 1
10 5 6 Ar
11 5 7 1
12 6 12 Ar
13 11 14 Ar
14 11 15 Ar
15 12 13 Ar
16 12 19 1
17 13 14 Ar
18 13 20 1
19 14 16 Ar
20 15 17 Ar
21 15 22 1
22 16 18 Ar
23 16 21 1
24 17 18 Ar
25 17 23 1
26 18 24 1
