# http://pg.minglab.cn/static/model/8_1_1_1-trichloroethane_AV.mol
# Created by GaussView 5.0.9
#

#
#

@<TRIPOS>MOLECULE
Molecule Name
8 7
SMALL
NO_CHARGES


@<TRIPOS>ATOM
1 C1    -0.4465    -0.1960    -0.1267 C
2 H2    -0.0607    -0.5795    -1.0481 H
3 H3     0.1747    -0.5196     0.6823 H
4 H4    -1.4424    -0.5584     0.0214 H
5 C5    -0.4625     1.3430    -0.1778 C
6 Cl6    -1.9341     1.9399     0.5808 Cl
7 Cl7     0.9379     1.9732     0.6819 Cl
8 Cl8    -0.4097     1.8748    -1.8547 Cl
@<TRIPOS>BOND
1 1 2 1
2 1 3 1
3 1 4 1
4 1 5 1
5 5 6 1
6 5 7 1
7 5 8 1
