# Molecule Name
# Created by GaussView 6.0.16
#

#
#

@<TRIPOS>MOLECULE
Molecule Name
30 30
SMALL
NO_CHARGES


@<TRIPOS>ATOM
1 C1    -0.4751     2.1237     0.5401 C
2 C2     0.4751     1.9551    -0.6474 C
3 C3     1.4557    -1.3890    -0.6474 C
4 C4     2.0767    -0.6504     0.5401 C
5 C5    -1.9307    -0.5662    -0.6474 C
6 C6    -1.6017    -1.4733     0.5401 C
7 C7    -1.9019     1.8963     0.1182 C
8 C8    -2.5617     0.7253     0.1148 C
9 C9     2.5932     0.6990     0.1182 C
10 C10     1.9090     1.8558     0.1148 C
11 C11    -0.6913    -2.5952     0.1182 C
12 C12     0.6527    -2.5811     0.1148 C
13 H13    -0.3854     3.1398     0.9446 H
14 H14    -0.2110     1.4592     1.3676 H
15 H15     0.3623     2.8139    -1.3227 H
16 H16     0.1943     1.0873    -1.2510 H
17 H17     2.2558    -1.7207    -1.3227 H
18 H18     0.8445    -0.7119    -1.2510 H
19 H19     1.3693    -0.5469     1.3676 H
20 H20     2.9119    -1.2361     0.9446 H
21 H21    -2.6180    -1.0932    -1.3227 H
22 H22    -1.0388    -0.3754    -1.2510 H
23 H23    -2.5264    -1.9037     0.9446 H
24 H24    -1.1582    -0.9124     1.3676 H
25 H25    -2.4329     2.7741    -0.2448 H
26 H26    -3.5877     0.7264    -0.2476 H
27 H27     2.4229     2.7439    -0.2476 H
28 H28     3.6189     0.7199    -0.2448 H
29 H29    -1.1860    -3.4940    -0.2448 H
30 H30     1.1648    -3.4703    -0.2476 H
@<TRIPOS>BOND
1 1 2 1
2 1 7 1
3 1 13 1
4 1 14 1
5 2 10 1
6 2 15 1
7 2 16 1
8 3 4 1
9 3 12 1
10 3 17 1
11 3 18 1
12 4 9 1
13 4 19 1
14 4 20 1
15 5 6 1
16 5 8 1
17 5 21 1
18 5 22 1
19 6 11 1
20 6 23 1
21 6 24 1
22 7 8 2
23 7 25 1
24 8 26 1
25 9 10 2
26 9 28 1
27 10 27 1
28 11 12 2
29 11 29 1
30 12 30 1
