<<<<<<< HEAD
# 142664
# Created by GaussView 6.0.16
#

#
#

@<TRIPOS>MOLECULE
Molecule Name
24 25
SMALL
NO_CHARGES


@<TRIPOS>ATOM
1 N1     0.0000    -0.0000     1.6445 N
2 C2     0.0000     0.0000    -0.9657 C
3 C3     1.2434    -0.7179    -0.4004 C
4 C4    -1.2434    -0.7179    -0.4004 C
5 C5    -0.0000     1.4357    -0.4004 C
6 C6     1.2015    -0.6937     1.1360 C
7 C7    -1.2015    -0.6937     1.1360 C
8 C8    -0.0000     1.3874     1.1360 C
9 C9     0.0000    -0.0000    -2.4915 C
10 H10     2.1574    -0.2518    -0.7540 H
11 H11     1.2968    -1.7425    -0.7540 H
12 H12    -1.2968    -1.7425    -0.7540 H
13 H13    -2.1574    -0.2518    -0.7540 H
14 H14    -0.8606     1.9943    -0.7540 H
15 H15     0.8606     1.9943    -0.7540 H
16 H16     1.2174    -1.7281     1.5285 H
17 H17     2.1053    -0.1902     1.5285 H
18 H18    -2.1053    -0.1902     1.5285 H
19 H19    -1.2174    -1.7281     1.5285 H
20 H20     0.8879     1.9183     1.5285 H
21 H21    -0.8879     1.9183     1.5285 H
22 H22     0.8849     0.5109    -2.8862 H
23 H23     0.0000    -1.0218    -2.8862 H
24 H24    -0.8849     0.5109    -2.8862 H
@<TRIPOS>BOND
1 1 6 1
2 1 7 1
3 1 8 1
4 2 3 1
5 2 4 1
6 2 5 1
7 2 9 1
8 3 6 1
9 3 10 1
10 3 11 1
11 4 7 1
12 4 12 1
13 4 13 1
14 5 8 1
15 5 14 1
16 5 15 1
17 6 16 1
18 6 17 1
19 7 18 1
20 7 19 1
21 8 20 1
22 8 21 1
23 9 22 1
24 9 23 1
25 9 24 1
=======
# 142664
# Created by GaussView 6.0.16
#

#
#

@<TRIPOS>MOLECULE
Molecule Name
24 25
SMALL
NO_CHARGES


@<TRIPOS>ATOM
1 N1     0.0000    -0.0000     1.6445 N
2 C2     0.0000     0.0000    -0.9657 C
3 C3     1.2434    -0.7179    -0.4004 C
4 C4    -1.2434    -0.7179    -0.4004 C
5 C5    -0.0000     1.4357    -0.4004 C
6 C6     1.2015    -0.6937     1.1360 C
7 C7    -1.2015    -0.6937     1.1360 C
8 C8    -0.0000     1.3874     1.1360 C
9 C9     0.0000    -0.0000    -2.4915 C
10 H10     2.1574    -0.2518    -0.7540 H
11 H11     1.2968    -1.7425    -0.7540 H
12 H12    -1.2968    -1.7425    -0.7540 H
13 H13    -2.1574    -0.2518    -0.7540 H
14 H14    -0.8606     1.9943    -0.7540 H
15 H15     0.8606     1.9943    -0.7540 H
16 H16     1.2174    -1.7281     1.5285 H
17 H17     2.1053    -0.1902     1.5285 H
18 H18    -2.1053    -0.1902     1.5285 H
19 H19    -1.2174    -1.7281     1.5285 H
20 H20     0.8879     1.9183     1.5285 H
21 H21    -0.8879     1.9183     1.5285 H
22 H22     0.8849     0.5109    -2.8862 H
23 H23     0.0000    -1.0218    -2.8862 H
24 H24    -0.8849     0.5109    -2.8862 H
@<TRIPOS>BOND
1 1 6 1
2 1 7 1
3 1 8 1
4 2 3 1
5 2 4 1
6 2 5 1
7 2 9 1
8 3 6 1
9 3 10 1
10 3 11 1
11 4 7 1
12 4 12 1
13 4 13 1
14 5 8 1
15 5 14 1
16 5 15 1
17 6 16 1
18 6 17 1
19 7 18 1
20 7 19 1
21 8 20 1
22 8 21 1
23 9 22 1
24 9 23 1
25 9 24 1
>>>>>>> 19ef694db57601665babb734ffa2d7b482024d9f
