# 8081
# Created by GaussView 6.0.16
#

#
#

@<TRIPOS>MOLECULE
Molecule Name
12 12
SMALL
NO_CHARGES


@<TRIPOS>ATOM
1 O1    -1.1850    -0.6841    -0.2633 O
2 O2     1.1850    -0.6841    -0.2633 O
3 O3     0.0000     1.3683    -0.2633 O
4 C4     0.0000    -1.3465     0.1793 C
5 C5    -1.1661     0.6732     0.1793 C
6 C6     1.1661     0.6732     0.1793 C
7 H7     0.0000    -1.4369     1.2726 H
8 H8     0.0000    -2.3557    -0.2420 H
9 H9    -2.0401     1.1779    -0.2420 H
10 H10    -1.2444     0.7185     1.2726 H
11 H11     1.2444     0.7185     1.2726 H
12 H12     2.0401     1.1779    -0.2420 H
@<TRIPOS>BOND
1 1 4 1
2 1 5 1
3 2 4 1
4 2 6 1
5 3 5 1
6 3 6 1
7 4 7 1
8 4 8 1
9 5 9 1
10 5 10 1
11 6 11 1
12 6 12 1
