# Title Card Required
# Created by GaussView 6.0.16
#

#
#

@<TRIPOS>MOLECULE
Molecule Name
36 42
SMALL
NO_CHARGES


@<TRIPOS>ATOM
1 C1    -3.6791    -0.6844     0.0000 C
2 C2    -2.4576    -1.4189     0.0000 C
3 C3    -1.2377    -0.7146     0.0000 C
4 C4    -1.2377     0.7146     0.0000 C
5 C5    -2.4576     1.4189     0.0000 C
6 C6    -3.6791     0.6844    -0.0000 C
7 C7    -0.0000    -1.4291     0.0000 C
8 C8    -0.0000     1.4291     0.0000 C
9 C9     1.2377     0.7146     0.0000 C
10 C10     1.2377    -0.7146     0.0000 C
11 C11     2.4576     1.4189     0.0000 C
12 C12     2.4323     2.8439    -0.0000 C
13 C13     1.2468     3.5284     0.0000 C
14 C14     0.0000     2.8378     0.0000 C
15 C15    -1.2468     3.5284    -0.0000 C
16 C16    -2.4323     2.8439     0.0000 C
17 H17    -3.3920     3.3831     0.0000 H
18 H18    -4.6259    -1.2460     0.0000 H
19 H19    -4.6259     1.2460     0.0000 H
20 H20     3.3920     3.3831    -0.0000 H
21 H21     1.2339     4.6291     0.0000 H
22 C22    -2.4323    -2.8439     0.0000 C
23 C23    -1.2468    -3.5284     0.0000 C
24 C24    -0.0000    -2.8378     0.0000 C
25 H25    -1.2339    -4.6291     0.0000 H
26 C26     1.2468    -3.5284     0.0000 C
27 C27     2.4323    -2.8439     0.0000 C
28 C28     2.4576    -1.4189     0.0000 C
29 H29     1.2339    -4.6291     0.0000 H
30 H30     3.3920    -3.3831     0.0000 H
31 C31     3.6791     0.6844     0.0000 C
32 H32     4.6259     1.2460     0.0000 H
33 C33     3.6791    -0.6844    -0.0000 C
34 F34    -1.2310     4.8783    -0.0000 F
35 F35    -3.6092    -3.5052     0.0000 F
36 F36     4.8402    -1.3731     0.0000 F
@<TRIPOS>BOND
1 1 2 Ar
2 1 6 2
3 1 18 1
4 2 3 Ar
5 2 22 Ar
6 3 4 Ar
7 3 7 Ar
8 4 5 Ar
9 4 8 Ar
10 5 6 Ar
11 5 16 Ar
12 6 19 1
13 7 10 Ar
14 7 24 Ar
15 8 9 Ar
16 8 14 Ar
17 9 10 Ar
18 9 11 Ar
19 10 28 Ar
20 11 12 Ar
21 11 31 Ar
22 12 13 2
23 12 20 1
24 13 14 Ar
25 13 21 1
26 14 15 Ar
27 15 16 2
28 15 34 1
29 16 17 1
30 22 23 2
31 22 35 1
32 23 24 Ar
33 23 25 1
34 24 26 Ar
35 26 27 2
36 26 29 1
37 27 28 Ar
38 27 30 1
39 28 33 Ar
40 31 32 1
41 31 33 2
42 33 36 1
