# Title
# Created by GaussView 6.0.16
#

#
#

@<TRIPOS>MOLECULE
Molecule Name
15 15
SMALL
NO_CHARGES


@<TRIPOS>ATOM
1 C1     2.4312     3.4882     3.5700 C
2 C2     3.5022     2.5940     3.5700 C
3 C3     4.8117     3.0741     3.5700 C
4 C4     5.0506     4.4486     3.5700 C
5 C5     3.9800     5.3426     3.5700 C
6 C6     2.6702     4.8623     3.5700 C
7 H7     1.3989     3.1095     3.5700 H
8 H8     5.6558     2.3694     3.5700 H
9 H9     4.1683     6.4260     3.5700 H
10 O10     6.3935     4.9406     3.5700 O
11 H11     6.3831     5.9005     3.5700 H
12 O12     3.2567     1.1850     3.5700 O
13 H13     4.0932     0.7140     3.5700 H
14 O14     1.5727     5.7793     3.5700 O
15 H15     0.7465     5.2904     3.5700 H
@<TRIPOS>BOND
1 1 2 Ar
2 1 6 Ar
3 1 7 1
4 2 3 Ar
5 2 12 1
6 3 4 Ar
7 3 8 1
8 4 5 Ar
9 4 10 1
10 5 6 Ar
11 5 9 1
12 6 14 1
13 10 11 1
14 12 13 1
15 14 15 1
