<<<<<<< HEAD
# Molecule Name
# Created by GaussView 6.0.16
#

#
#

@<TRIPOS>MOLECULE
Molecule Name
19 18
SMALL
NO_CHARGES


@<TRIPOS>ATOM
1 C1    -0.7475    -1.1930     1.8024 C
2 C2     0.7475    -1.1930     1.8024 C
3 C3     1.4069    -0.0509     1.8024 C
4 C4     0.6594     1.2439     1.8024 C
5 C5    -0.6594     1.2439     1.8024 C
6 C6    -1.4069    -0.0509     1.8024 C
7 C7    -1.3644    -0.7877    -1.2469 C
8 C8     1.3644    -0.7877    -1.2469 C
9 C9     0.0000     1.5755    -1.2469 C
10 O10    -2.3769    -1.3723    -2.0189 O
11 O11     2.3769    -1.3723    -2.0189 O
12 O12     0.0000     2.7446    -2.0189 O
13 Mo13     0.0000     0.0000    -0.1184 Mo
14 H14    -1.3700    -2.0874     1.7980 H
15 H15     1.3700    -2.0874     1.7980 H
16 H16     2.4927    -0.1428     1.7980 H
17 H17     1.1227     2.2301     1.7980 H
18 H18    -1.1227     2.2301     1.7980 H
19 H19    -2.4927    -0.1428     1.7980 H
@<TRIPOS>BOND
1 1 2 Ar
2 1 6 Ar
3 1 14 1
4 2 3 Ar
5 2 15 1
6 3 4 Ar
7 3 16 1
8 4 5 Ar
9 4 17 1
10 5 6 Ar
11 5 18 1
12 6 19 1
13 7 10 1
14 7 13 1
15 8 11 1
16 8 13 1
17 9 12 1
18 9 13 1
=======
# Molecule Name
# Created by GaussView 6.0.16
#

#
#

@<TRIPOS>MOLECULE
Molecule Name
19 18
SMALL
NO_CHARGES


@<TRIPOS>ATOM
1 C1    -0.7475    -1.1930     1.8024 C
2 C2     0.7475    -1.1930     1.8024 C
3 C3     1.4069    -0.0509     1.8024 C
4 C4     0.6594     1.2439     1.8024 C
5 C5    -0.6594     1.2439     1.8024 C
6 C6    -1.4069    -0.0509     1.8024 C
7 C7    -1.3644    -0.7877    -1.2469 C
8 C8     1.3644    -0.7877    -1.2469 C
9 C9     0.0000     1.5755    -1.2469 C
10 O10    -2.3769    -1.3723    -2.0189 O
11 O11     2.3769    -1.3723    -2.0189 O
12 O12     0.0000     2.7446    -2.0189 O
13 Mo13     0.0000     0.0000    -0.1184 Mo
14 H14    -1.3700    -2.0874     1.7980 H
15 H15     1.3700    -2.0874     1.7980 H
16 H16     2.4927    -0.1428     1.7980 H
17 H17     1.1227     2.2301     1.7980 H
18 H18    -1.1227     2.2301     1.7980 H
19 H19    -2.4927    -0.1428     1.7980 H
@<TRIPOS>BOND
1 1 2 Ar
2 1 6 Ar
3 1 14 1
4 2 3 Ar
5 2 15 1
6 3 4 Ar
7 3 16 1
8 4 5 Ar
9 4 17 1
10 5 6 Ar
11 5 18 1
12 6 19 1
13 7 10 1
14 7 13 1
15 8 11 1
16 8 13 1
17 9 12 1
18 9 13 1
>>>>>>> 19ef694db57601665babb734ffa2d7b482024d9f
