# http://pg.minglab.cn/static/model/D4_12-Crown-4.mol
# Created by GaussView 5.0.9
#

#
#

@<TRIPOS>MOLECULE
Molecule Name
28 28
SMALL
NO_CHARGES


@<TRIPOS>ATOM
1 O1     2.0628    -0.0322    -0.5252 O
2 C2     1.9831     0.9377     0.4902 C
3 H3     2.9905     1.1771     0.8715 H
4 H4     1.3856     0.5824     1.3396 H
5 C5     1.3600     2.2117    -0.0981 C
6 H6     1.4484     3.0251     0.6399 H
7 H7     1.9136     2.4758    -1.0010 H
8 O8     0.0319     2.0635    -0.5249 O
9 C9    -0.9384     1.9841     0.4901 C
10 H10    -0.5835     1.3872     1.3401 H
11 H11    -1.1784     2.9917     0.8706 H
12 C12    -2.2121     1.3603    -0.0986 C
13 H13    -3.0257     1.4490     0.6391 H
14 H14    -2.4760     1.9138    -1.0017 H
15 O15    -2.0633     0.0323    -0.5249 O
16 C16    -1.9829    -0.9378     0.4903 C
17 H17    -2.9902    -1.1774     0.8718 H
18 H18    -1.3852    -0.5826     1.3395 H
19 C19    -1.3597    -2.2118    -0.0982 C
20 H20    -1.4481    -3.0250     0.6399 H
21 H21    -1.9135    -2.4760    -1.0009 H
22 O22    -0.0319    -2.0632    -0.5251 O
23 C23     0.9385    -1.9844     0.4900 C
24 H24     0.5835    -1.3877     1.3401 H
25 H25     1.1782    -2.9921     0.8701 H
26 C26     2.2121    -1.3603    -0.0984 C
27 H27     3.0256    -1.4485     0.6395 H
28 H28     2.4765    -1.9136    -1.0015 H
@<TRIPOS>BOND
1 1 2 1
2 1 26 1
3 2 3 1
4 2 4 1
5 2 5 1
6 5 6 1
7 5 7 1
8 5 8 1
9 8 9 1
10 9 10 1
11 9 11 1
12 9 12 1
13 12 13 1
14 12 14 1
15 12 15 1
16 15 16 1
17 16 17 1
18 16 18 1
19 16 19 1
20 19 20 1
21 19 21 1
22 19 22 1
23 22 23 1
24 23 24 1
25 23 25 1
26 23 26 1
27 26 27 1
28 26 28 1
