<<<<<<< HEAD
# http://pg.minglab.cn/static/model/C4_Calix[4]arenetetrol.mol
# Created by GaussView 5.0.9
#

#
#

@<TRIPOS>MOLECULE
Molecule Name
56 60
SMALL
NO_CHARGES


@<TRIPOS>ATOM
1 C1    -1.6514    -3.7308     1.6600 C
2 C2    -2.6012    -2.9146     1.0750 C
3 C3    -2.3215    -2.2269    -0.0946 C
4 C4    -1.0612    -2.3733    -0.6817 C
5 C5    -0.0923    -3.1946    -0.1012 C
6 C6    -0.4073    -3.8618     1.0741 C
7 H7    -1.8806    -4.2637     2.5702 H
8 H8    -3.5743    -2.8070     1.5303 H
9 H9     0.3353    -4.4995     1.5300 H
10 C10    -3.3465    -1.2918    -0.6944 C
11 H11    -3.2481    -1.2699    -1.7814 H
12 H12    -4.3445    -1.6626    -0.4557 H
13 C13     1.2918    -3.3465    -0.6943 C
14 H14     1.2699    -3.2482    -1.7814 H
15 H15     1.6626    -4.3445    -0.4555 H
16 C16    -3.1947     0.0923    -0.1013 C
17 C17    -3.8620     0.4074     1.0739 C
18 C18    -2.3733     1.0612    -0.6818 C
19 C19    -3.7311     1.6515     1.6598 C
20 H20    -4.4998    -0.3353     1.5298 H
21 C21    -2.2271     2.3216    -0.0947 C
22 C22    -2.9148     2.6012     1.0749 C
23 H23    -4.2642     1.8807     2.5699 H
24 H24    -2.8073     3.5744     1.5302 H
25 C25     2.2271    -2.3216    -0.0947 C
26 C26     2.3734    -1.0613    -0.6818 C
27 C27     2.9148    -2.6012     1.0749 C
28 C28     3.1948    -0.0922    -0.1013 C
29 C29     3.7312    -1.6516     1.6598 C
30 H30     2.8072    -3.5743     1.5302 H
31 C31     3.8621    -0.4074     1.0739 C
32 H32     4.2641    -1.8808     2.5699 H
33 H33     4.4999     0.3351     1.5298 H
34 C34    -1.2918     3.3465    -0.6943 C
35 H35    -1.6626     4.3446    -0.4555 H
36 H36    -1.2699     3.2483    -1.7814 H
37 C37     3.3465     1.2918    -0.6944 C
38 H38     4.3445     1.6627    -0.4556 H
39 H39     3.2482     1.2699    -1.7814 H
40 C40     0.0921     3.1946    -0.1011 C
41 C41     1.0612     2.3732    -0.6817 C
42 C42     0.4073     3.8618     1.0741 C
43 C43     2.3215     2.2269    -0.0947 C
44 C44     1.6514     3.7307     1.6601 C
45 H45    -0.3353     4.4994     1.5301 H
46 C46     2.6011     2.9145     1.0750 C
47 H47     1.8806     4.2636     2.5703 H
48 H48     3.5742     2.8069     1.5303 H
49 O49     1.7030    -0.8302    -1.8546 O
50 H50     1.5787     0.1362    -1.9780 H
51 O51    -0.8302    -1.7030    -1.8546 O
52 H52     0.1362    -1.5787    -1.9780 H
53 O53    -1.7030     0.8302    -1.8546 O
54 H54    -1.5786    -0.1362    -1.9780 H
55 O55     0.8302     1.7030    -1.8546 O
56 H56    -0.1362     1.5787    -1.9781 H
@<TRIPOS>BOND
1 1 2 2
2 1 6 2
3 1 7 1
4 2 3 2
5 2 8 1
6 3 4 Ar
7 3 10 1
8 4 5 Ar
9 4 51 1
10 5 6 Ar
11 5 13 1
12 6 9 1
13 10 11 1
14 10 12 1
15 10 16 1
16 13 14 1
17 13 15 1
18 13 25 1
19 16 17 Ar
20 16 18 Ar
21 17 19 2
22 17 20 1
23 18 21 Ar
24 18 53 1
25 19 22 2
26 19 23 1
27 21 22 2
28 21 34 1
29 22 24 1
30 25 26 Ar
31 25 27 2
32 26 28 Ar
33 26 49 1
34 27 29 2
35 27 30 1
36 28 31 Ar
37 28 37 1
38 29 31 2
39 29 32 1
40 31 33 1
41 34 35 1
42 34 36 1
43 34 40 1
44 37 38 1
45 37 39 1
46 37 43 1
47 40 41 Ar
48 40 42 Ar
49 41 43 Ar
50 41 55 1
51 42 44 2
52 42 45 1
53 43 46 2
54 44 46 2
55 44 47 1
56 46 48 1
57 49 50 1
58 51 52 1
59 53 54 1
60 55 56 1
=======
# http://pg.minglab.cn/static/model/C4_Calix[4]arenetetrol.mol
# Created by GaussView 5.0.9
#

#
#

@<TRIPOS>MOLECULE
Molecule Name
56 60
SMALL
NO_CHARGES


@<TRIPOS>ATOM
1 C1    -1.6514    -3.7308     1.6600 C
2 C2    -2.6012    -2.9146     1.0750 C
3 C3    -2.3215    -2.2269    -0.0946 C
4 C4    -1.0612    -2.3733    -0.6817 C
5 C5    -0.0923    -3.1946    -0.1012 C
6 C6    -0.4073    -3.8618     1.0741 C
7 H7    -1.8806    -4.2637     2.5702 H
8 H8    -3.5743    -2.8070     1.5303 H
9 H9     0.3353    -4.4995     1.5300 H
10 C10    -3.3465    -1.2918    -0.6944 C
11 H11    -3.2481    -1.2699    -1.7814 H
12 H12    -4.3445    -1.6626    -0.4557 H
13 C13     1.2918    -3.3465    -0.6943 C
14 H14     1.2699    -3.2482    -1.7814 H
15 H15     1.6626    -4.3445    -0.4555 H
16 C16    -3.1947     0.0923    -0.1013 C
17 C17    -3.8620     0.4074     1.0739 C
18 C18    -2.3733     1.0612    -0.6818 C
19 C19    -3.7311     1.6515     1.6598 C
20 H20    -4.4998    -0.3353     1.5298 H
21 C21    -2.2271     2.3216    -0.0947 C
22 C22    -2.9148     2.6012     1.0749 C
23 H23    -4.2642     1.8807     2.5699 H
24 H24    -2.8073     3.5744     1.5302 H
25 C25     2.2271    -2.3216    -0.0947 C
26 C26     2.3734    -1.0613    -0.6818 C
27 C27     2.9148    -2.6012     1.0749 C
28 C28     3.1948    -0.0922    -0.1013 C
29 C29     3.7312    -1.6516     1.6598 C
30 H30     2.8072    -3.5743     1.5302 H
31 C31     3.8621    -0.4074     1.0739 C
32 H32     4.2641    -1.8808     2.5699 H
33 H33     4.4999     0.3351     1.5298 H
34 C34    -1.2918     3.3465    -0.6943 C
35 H35    -1.6626     4.3446    -0.4555 H
36 H36    -1.2699     3.2483    -1.7814 H
37 C37     3.3465     1.2918    -0.6944 C
38 H38     4.3445     1.6627    -0.4556 H
39 H39     3.2482     1.2699    -1.7814 H
40 C40     0.0921     3.1946    -0.1011 C
41 C41     1.0612     2.3732    -0.6817 C
42 C42     0.4073     3.8618     1.0741 C
43 C43     2.3215     2.2269    -0.0947 C
44 C44     1.6514     3.7307     1.6601 C
45 H45    -0.3353     4.4994     1.5301 H
46 C46     2.6011     2.9145     1.0750 C
47 H47     1.8806     4.2636     2.5703 H
48 H48     3.5742     2.8069     1.5303 H
49 O49     1.7030    -0.8302    -1.8546 O
50 H50     1.5787     0.1362    -1.9780 H
51 O51    -0.8302    -1.7030    -1.8546 O
52 H52     0.1362    -1.5787    -1.9780 H
53 O53    -1.7030     0.8302    -1.8546 O
54 H54    -1.5786    -0.1362    -1.9780 H
55 O55     0.8302     1.7030    -1.8546 O
56 H56    -0.1362     1.5787    -1.9781 H
@<TRIPOS>BOND
1 1 2 2
2 1 6 2
3 1 7 1
4 2 3 2
5 2 8 1
6 3 4 Ar
7 3 10 1
8 4 5 Ar
9 4 51 1
10 5 6 Ar
11 5 13 1
12 6 9 1
13 10 11 1
14 10 12 1
15 10 16 1
16 13 14 1
17 13 15 1
18 13 25 1
19 16 17 Ar
20 16 18 Ar
21 17 19 2
22 17 20 1
23 18 21 Ar
24 18 53 1
25 19 22 2
26 19 23 1
27 21 22 2
28 21 34 1
29 22 24 1
30 25 26 Ar
31 25 27 2
32 26 28 Ar
33 26 49 1
34 27 29 2
35 27 30 1
36 28 31 Ar
37 28 37 1
38 29 31 2
39 29 32 1
40 31 33 1
41 34 35 1
42 34 36 1
43 34 40 1
44 37 38 1
45 37 39 1
46 37 43 1
47 40 41 Ar
48 40 42 Ar
49 41 43 Ar
50 41 55 1
51 42 44 2
52 42 45 1
53 43 46 2
54 44 46 2
55 44 47 1
56 46 48 1
57 49 50 1
58 51 52 1
59 53 54 1
60 55 56 1
>>>>>>> 19ef694db57601665babb734ffa2d7b482024d9f
