<<<<<<< HEAD
# Title
# Created by GaussView 6.0.16
#

#
#

@<TRIPOS>MOLECULE
Molecule Name
12 14
SMALL
NO_CHARGES


@<TRIPOS>ATOM
1 C1     2.3377     3.4288     2.4356 C
2 C2     1.2465     2.3377     2.4356 C
3 C3     2.3377     1.2465     2.4356 C
4 C4     3.4288     2.3377     2.4356 C
5 H5     2.3377     4.0693     3.3423 H
6 H6     0.6061     2.3377     3.3423 H
7 H7     2.3377     0.6061     3.3423 H
8 H8     4.0693     2.3377     3.3423 H
9 F9     2.3377     0.4675     1.3331 F
10 F10     4.2078     2.3377     1.3331 F
11 F11     2.3377     4.2078     1.3331 F
12 F12     0.4675     2.3377     1.3331 F
@<TRIPOS>BOND
1 1 2 1
2 1 4 1
3 1 5 1
4 1 11 1
5 2 3 1
6 2 6 1
7 2 12 1
8 3 4 1
9 3 7 1
10 3 9 1
11 4 8 1
12 4 10 1
13 9 11 1
14 10 12 1
=======
# Title
# Created by GaussView 6.0.16
#

#
#

@<TRIPOS>MOLECULE
Molecule Name
12 14
SMALL
NO_CHARGES


@<TRIPOS>ATOM
1 C1     2.3377     3.4288     2.4356 C
2 C2     1.2465     2.3377     2.4356 C
3 C3     2.3377     1.2465     2.4356 C
4 C4     3.4288     2.3377     2.4356 C
5 H5     2.3377     4.0693     3.3423 H
6 H6     0.6061     2.3377     3.3423 H
7 H7     2.3377     0.6061     3.3423 H
8 H8     4.0693     2.3377     3.3423 H
9 F9     2.3377     0.4675     1.3331 F
10 F10     4.2078     2.3377     1.3331 F
11 F11     2.3377     4.2078     1.3331 F
12 F12     0.4675     2.3377     1.3331 F
@<TRIPOS>BOND
1 1 2 1
2 1 4 1
3 1 5 1
4 1 11 1
5 2 3 1
6 2 6 1
7 2 12 1
8 3 4 1
9 3 7 1
10 3 9 1
11 4 8 1
12 4 10 1
13 9 11 1
14 10 12 1
>>>>>>> 19ef694db57601665babb734ffa2d7b482024d9f
