<<<<<<< HEAD
# Title
# Created by GaussView 6.0.16
#

#
#

@<TRIPOS>MOLECULE
Molecule Name
6 5
SMALL
NO_CHARGES


@<TRIPOS>ATOM
1 I1     0.4357     0.1256     0.0000 I
2 F2     0.4357    -1.7844     0.0000 F
3 F3     0.4357     0.1256     1.9100 F
4 F4     2.3457     0.1256     0.0000 F
5 F5    -1.4743     0.1256     0.0000 F
6 F6     0.4357     0.1256    -1.9100 F
@<TRIPOS>BOND
1 1 2 1
2 1 3 1
3 1 4 1
4 1 5 1
5 1 6 1
=======
# Title
# Created by GaussView 6.0.16
#

#
#

@<TRIPOS>MOLECULE
Molecule Name
6 5
SMALL
NO_CHARGES


@<TRIPOS>ATOM
1 I1     0.4357     0.1256     0.0000 I
2 F2     0.4357    -1.7844     0.0000 F
3 F3     0.4357     0.1256     1.9100 F
4 F4     2.3457     0.1256     0.0000 F
5 F5    -1.4743     0.1256     0.0000 F
6 F6     0.4357     0.1256    -1.9100 F
@<TRIPOS>BOND
1 1 2 1
2 1 3 1
3 1 4 1
4 1 5 1
5 1 6 1
>>>>>>> 19ef694db57601665babb734ffa2d7b482024d9f
