# http://pg.minglab.cn/static/model/C5_Pentachloroferrocene(twisted).mol
# Created by GaussView 5.0.9
#

#
#

@<TRIPOS>MOLECULE
Molecule Name
21 20
SMALL
NO_CHARGES


@<TRIPOS>ATOM
1 C1     0.7174     0.9754     0.9162 C
2 C2    -0.7068     0.9843     0.9160 C
3 C3    -1.1553    -0.3675     0.9162 C
4 C4     1.1490    -0.3818     0.9169 C
5 C5    -0.0083    -1.2117     0.9168 C
6 C6     0.3665     1.1460    -2.5406 C
7 H7     0.6923     2.1702    -2.5692 H
8 C8    -0.9745     0.7011    -2.5420 C
9 H9    -1.8478     1.3274    -2.5716 H
10 C10    -0.9657    -0.7119    -2.5419 C
11 H11    -1.8312    -1.3489    -2.5717 H
12 C12     1.2042     0.0081    -2.5398 C
13 H13     2.2789     0.0149    -2.5676 H
14 C14     0.3808    -1.1401    -2.5406 C
15 H15     0.7192    -2.1602    -2.5690 H
16 Fe16     0.0006     0.0004    -0.7964 Fe
17 Cl17     2.7618    -0.9169     0.9684 Cl
18 Cl18     1.7245     2.3439     0.9678 Cl
19 Cl19    -1.6971     2.3651     0.9668 Cl
20 Cl20    -2.7745    -0.8827     0.9685 Cl
21 Cl21    -0.0188    -2.9108     0.9692 Cl
@<TRIPOS>BOND
1 1 2 Ar
2 1 4 Ar
3 1 18 1
4 2 3 Ar
5 2 19 1
6 3 5 Ar
7 3 20 1
8 4 5 Ar
9 4 17 1
10 5 21 1
11 6 7 1
12 6 8 Ar
13 6 12 Ar
14 8 9 1
15 8 10 Ar
16 10 11 1
17 10 14 Ar
18 12 13 1
19 12 14 Ar
20 14 15 1
