# http://pg.minglab.cn/static/model/C6_Hexa(fluorophenyl)benzene.mol
# Created by GaussView 5.0.9
#

#
#

@<TRIPOS>MOLECULE
Molecule Name
72 78
SMALL
NO_CHARGES


@<TRIPOS>ATOM
1 C1     1.3974     0.0036     0.2848 C
2 C2     0.7018    -1.2084     0.2848 C
3 C3    -0.6956    -1.2120     0.2848 C
4 C4    -1.3974    -0.0036     0.2847 C
5 C5    -0.7018     1.2083     0.2849 C
6 C6     0.6956     1.2119     0.2848 C
7 C7    -2.8751    -0.0058     0.2854 C
8 C8    -3.5739     0.6446    -0.7255 C
9 C9    -3.5823    -0.6517     1.2954 C
10 C10    -4.9545     0.6325    -0.7012 C
11 H11    -3.0570     1.1467    -1.5281 H
12 C12    -4.9651    -0.6502     1.2983 C
13 H13    -3.0422    -1.1502     2.0863 H
14 C14    -5.6690    -0.0061     0.2957 C
15 H15    -5.5009    -1.1547     2.0877 H
16 H16    -6.7468     0.0058     0.2770 H
17 C17    -1.4325    -2.4929     0.2858 C
18 C18    -2.3452    -2.7730    -0.7249 C
19 C19    -1.2267    -3.4281     1.2959 C
20 C20    -3.0251    -3.9746    -0.7004 C
21 H21    -2.5217    -2.0745    -1.5277 H
22 C22    -1.9194    -4.6249     1.2991 C
23 H23    -0.5248    -3.2095     2.0867 H
24 C24    -2.8293    -4.9125     0.2967 C
25 H25    -1.7503    -5.3410     2.0887 H
26 H26    -3.3785    -5.8400     0.2782 H
27 C27     1.4426    -2.4870     0.2859 C
28 C28     1.2289    -3.4177    -0.7247 C
29 C29     2.3555    -2.7762     1.2961 C
30 C30     1.9296    -4.6073    -0.7000 C
31 H31     0.5356    -3.2214    -1.5274 H
32 C32     3.0456    -3.9745     1.2994 C
33 H33     2.5171    -2.0590     2.0868 H
34 C34     2.8398    -4.9064     0.2970 C
35 H35     3.7504    -4.1860     2.0889 H
36 H36     3.3685    -5.8458     0.2786 H
37 C37     2.8752     0.0058     0.2856 C
38 C38     3.5823     0.6517     1.2956 C
39 C39     3.5740    -0.6446    -0.7252 C
40 C40     4.9651     0.6503     1.2986 C
41 H41     3.0421     1.1502     2.0865 H
42 C42     4.9546    -0.6325    -0.7009 C
43 H43     3.0572    -1.1467    -1.5279 H
44 C44     5.6690     0.0061     0.2961 C
45 H45     5.5008     1.1548     2.0881 H
46 H46     6.7468    -0.0057     0.2774 H
47 C47     1.4325     2.4928     0.2857 C
48 C48     1.2268     3.4281     1.2958 C
49 C49     2.3452     2.7730    -0.7251 C
50 C50     1.9195     4.6249     1.2989 C
51 H51     0.5251     3.2095     2.0867 H
52 C52     3.0250     3.9746    -0.7007 C
53 H53     2.5215     2.0744    -1.5279 H
54 C54     2.8293     4.9126     0.2963 C
55 H55     1.7505     5.3411     2.0884 H
56 H56     3.3784     5.8400     0.2777 H
57 C57    -1.4426     2.4870     0.2860 C
58 C58    -1.2288     3.4178    -0.7244 C
59 C59    -2.3556     2.7760     1.2962 C
60 C60    -1.9296     4.6073    -0.6996 C
61 H61    -0.5355     3.2217    -1.5271 H
62 C62    -3.0458     3.9742     1.2996 C
63 H63    -2.5172     2.0587     2.0868 H
64 C64    -2.8400     4.9063     0.2974 C
65 H65    -3.7506     4.1856     2.0891 H
66 H66    -3.3687     5.8456     0.2791 H
67 F67     5.6250    -1.2674    -1.6832 F
68 F68     1.7150    -5.5056    -1.6821 F
69 F69    -3.9103    -4.2379    -1.6826 F
70 F70    -5.6248     1.2674    -1.6836 F
71 F71    -1.7150     5.5058    -1.6816 F
72 F72     3.9100     4.2378    -1.6831 F
@<TRIPOS>BOND
1 1 2 Ar
2 1 6 Ar
3 1 37 1
4 2 3 Ar
5 2 27 1
6 3 4 Ar
7 3 17 1
8 4 5 Ar
9 4 7 1
10 5 6 Ar
11 5 57 1
12 6 47 1
13 7 8 Ar
14 7 9 Ar
15 8 10 2
16 8 11 1
17 9 12 2
18 9 13 1
19 10 14 2
20 10 70 1
21 12 14 2
22 12 15 1
23 14 16 1
24 17 18 Ar
25 17 19 Ar
26 18 20 2
27 18 21 1
28 19 22 2
29 19 23 1
30 20 24 2
31 20 69 1
32 22 24 2
33 22 25 1
34 24 26 1
35 27 28 Ar
36 27 29 Ar
37 28 30 2
38 28 31 1
39 29 32 2
40 29 33 1
41 30 34 2
42 30 68 1
43 32 34 2
44 32 35 1
45 34 36 1
46 37 38 Ar
47 37 39 Ar
48 38 40 2
49 38 41 1
50 39 42 2
51 39 43 1
52 40 44 2
53 40 45 1
54 42 44 2
55 42 67 1
56 44 46 1
57 47 48 Ar
58 47 49 Ar
59 48 50 2
60 48 51 1
61 49 52 2
62 49 53 1
63 50 54 2
64 50 55 1
65 52 54 2
66 52 72 1
67 54 56 1
68 57 58 Ar
69 57 59 Ar
70 58 60 2
71 58 61 1
72 59 62 2
73 59 63 1
74 60 64 2
75 60 71 1
76 62 64 2
77 62 65 1
78 64 66 1
