# Molecule Name
# Created by GaussView 6.0.16
#

#
#

@<TRIPOS>MOLECULE
Molecule Name
112 119
SMALL
NO_CHARGES


@<TRIPOS>ATOM
1 C1    -3.7107     3.5968    -2.4728 C
2 C2    -3.1150     4.0083    -1.1129 C
3 C3    -3.9593     4.0457    -0.0150 C
4 C4    -3.3169     4.3880     1.2937 C
5 C5    -2.8210     5.9691     1.0116 C
6 C6    -1.8138     5.8688    -0.2537 C
7 C7    -5.1257    -0.6586    -2.4728 C
8 C8    -5.0760     0.0638    -1.1129 C
9 C9    -5.6316    -0.5730    -0.0150 C
10 C10    -5.4987     0.1426     1.2937 C
11 C11    -6.4257     1.5161     1.0116 C
12 C12    -5.7193     2.2410    -0.2537 C
13 C13    -2.6809    -4.4181    -2.4728 C
14 C14    -3.2147    -3.9288    -1.1129 C
15 C15    -3.0633    -4.7603    -0.0150 C
16 C16    -3.5399    -4.2102     1.2937 C
17 C17    -5.1917    -4.0786     1.0116 C
18 C18    -5.3180    -3.0743    -0.2537 C
19 C19     0.4985     5.1438    -2.4728 C
20 C20     1.1917     4.9346    -1.1129 C
21 C21     0.6945     5.6180    -0.0150 C
22 C22     1.3626     5.3291     1.2937 C
23 C23     2.9079     5.9273     1.0116 C
24 C24     3.4575     5.0772    -0.2537 C
25 C25     1.7827    -4.8506    -2.4728 C
26 C26     1.0674    -4.9629    -1.1129 C
27 C27     1.8118    -5.3629    -0.0150 C
28 C28     1.0846    -5.3926     1.2937 C
29 C29    -0.0482    -6.6020     1.0116 C
30 C30    -0.9122    -6.0746    -0.2537 C
31 C31     4.9039    -1.6306    -2.4728 C
32 C32     4.5457    -2.2598    -1.1129 C
33 C33     5.3226    -1.9272    -0.0150 C
34 C34     4.8923    -2.5143     1.2937 C
35 C35     5.1316    -4.1540     1.0116 C
36 C36     4.1806    -4.5006    -0.2537 C
37 C37     4.3323     2.8173    -2.4728 C
38 C38     4.6010     2.1450    -1.1129 C
39 C39     4.8253     2.9597    -0.0150 C
40 C40     5.0160     2.2573     1.2937 C
41 C41     6.4472     1.4221     1.0116 C
42 C42     6.1252     0.4624    -0.2537 C
43 O43    -4.5477     4.5789    -2.8349 O
44 O44     0.7046     5.8673     2.3376 O
45 O45    -2.1301     6.3895     2.1487 O
46 O46    -4.1479     4.2091     2.3376 O
47 O47    -6.3236     2.3184     2.1487 O
48 O48    -5.8770    -0.6187     2.3376 O
49 O49    -5.7553    -3.4985     2.1487 O
50 O50     3.6674     5.6492     2.1487 O
51 O51     3.4486     3.4844     0.1786 O
52 O52    -0.5740     4.8687     0.1786 O
53 O53    -4.1644     2.5868     0.1786 O
54 O54    -4.6189    -1.6430     0.1786 O
55 O55     2.6563     5.2103    -1.2113 O
56 O56    -2.4174     5.3254    -1.2113 O
57 O57    -5.6708     1.4303    -1.2113 O
58 O58    -4.6539    -3.5418    -1.2113 O
59 O59     0.7445     6.4104    -2.8349 O
60 O60    -6.4154    -0.7007    -2.8349 O
61 O61    -3.4521    -5.4526    -2.8349 O
62 O62    -3.1805    -4.9805     2.3376 O
63 O63    -0.8531    -6.6810     2.1487 O
64 O64     1.9109    -5.5920     2.3376 O
65 O65     4.6915    -4.8325     2.1487 O
66 O66     5.5634    -1.9925     2.3376 O
67 O67     6.7033     0.6549     2.1487 O
68 O68     5.0265     3.1073     2.3376 O
69 O69    -1.5953    -4.6356     0.1786 O
70 O70     2.6296    -4.1375     0.1786 O
71 O71     4.8744    -0.5238     0.1786 O
72 O72    -0.1326    -5.8469    -1.2113 O
73 O73     4.4886    -3.7491    -1.2113 O
74 O74     5.7298     1.1718    -1.2113 O
75 O75     5.4760     3.4148    -2.8349 O
76 O76     2.1106    -6.0986    -2.8349 O
77 O77     6.0840    -2.1523    -2.8349 O
78 H78    -3.4980     2.7026    -3.0206 H
79 H79    -2.5015     3.7583     1.5827 H
80 H80    -3.6211     6.6519     0.8150 H
81 H81    -4.2940    -1.0498    -3.0206 H
82 H82    -4.4980     0.3875     1.5827 H
83 H83    -7.4584     1.3163     0.8150 H
84 H84    -1.8565    -4.0117    -3.0206 H
85 H85    -3.1074    -3.2751     1.5827 H
86 H86    -5.6793    -5.0105     0.8150 H
87 H87    -0.0680     4.4199    -3.0206 H
88 H88     1.3787     4.2990     1.5827 H
89 H89     2.9429     6.9785     0.8150 H
90 H90     1.9790    -3.9527    -3.0206 H
91 H91     0.6231    -4.4714     1.5827 H
92 H92     0.3764    -7.5643     0.8150 H
93 H93     4.3243    -0.9172    -3.0206 H
94 H94     3.8844    -2.3007     1.5827 H
95 H95     6.1487    -4.4220     0.8150 H
96 H96     3.4133     2.8089    -3.0206 H
97 H97     4.2207     1.6025     1.5827 H
98 H98     7.2909     2.0502     0.8150 H
99 H99     1.1825     5.6776     3.1483 H
100 H100    -1.6712     7.2111     1.9588 H
101 H101    -3.7017     4.4644     3.1483 H
102 H102    -6.6799     3.1895     1.9588 H
103 H103    -5.7984    -0.1105     3.1483 H
104 H104    -6.6585    -3.2340     1.9588 H
105 H105     4.5959     5.8027     1.9588 H
106 H106    -3.5288    -4.6023     3.1483 H
107 H107    -1.6231    -7.2221     1.9588 H
108 H108     1.3980    -5.6284     3.1483 H
109 H109     4.6345    -5.7719     1.9588 H
110 H110     5.2721    -2.4162     3.1483 H
111 H111     7.4022     0.0247     1.9588 H
112 H112     5.1762     2.6154     3.1483 H
@<TRIPOS>BOND
1 1 2 1
2 1 43 Ar
3 1 78 1
4 2 3 2
5 2 56 1
6 3 4 1
7 3 53 1
8 4 46 1
9 4 5 1
10 4 79 1
11 5 6 1
12 5 45 1
13 5 80 1
14 6 56 2
15 6 52 1
16 7 8 1
17 7 60 Ar
18 7 81 1
19 8 9 2
20 8 57 1
21 9 10 1
22 9 54 1
23 10 48 1
24 10 11 1
25 10 82 1
26 11 12 1
27 11 47 1
28 11 83 1
29 12 57 2
30 12 53 1
31 13 14 1
32 13 61 Ar
33 13 84 1
34 14 15 2
35 14 58 1
36 15 16 1
37 15 69 1
38 16 62 1
39 16 17 1
40 16 85 1
41 17 18 1
42 17 49 1
43 17 86 1
44 18 58 2
45 18 54 1
46 19 20 1
47 19 59 Ar
48 19 87 1
49 20 21 2
50 20 55 1
51 21 22 1
52 21 52 1
53 22 44 1
54 22 23 1
55 22 88 1
56 23 24 1
57 23 50 1
58 23 89 1
59 24 55 2
60 24 51 1
61 25 26 1
62 25 76 Ar
63 25 90 1
64 26 27 2
65 26 72 1
66 27 28 1
67 27 70 1
68 28 64 1
69 28 29 1
70 28 91 1
71 29 30 1
72 29 63 1
73 29 92 1
74 30 72 2
75 30 69 1
76 31 32 1
77 31 77 Ar
78 31 93 1
79 32 33 2
80 32 73 1
81 33 34 1
82 33 71 1
83 34 66 1
84 34 35 1
85 34 94 1
86 35 36 1
87 35 65 1
88 35 95 1
89 36 73 2
90 36 70 1
91 37 38 1
92 37 75 Ar
93 37 96 1
94 38 39 2
95 38 74 1
96 39 40 1
97 39 51 1
98 40 68 1
99 40 41 1
100 40 97 1
101 41 42 1
102 41 67 1
103 41 98 1
104 42 74 2
105 42 71 1
106 44 99 1
107 45 100 1
108 46 101 1
109 47 102 1
110 48 103 1
111 49 104 1
112 50 105 1
113 62 106 1
114 63 107 1
115 64 108 1
116 65 109 1
117 66 110 1
118 67 111 1
119 68 112 1
