@<TRIPOS>MOLECULE
Molecule Name
21 21
SMALL
NO_CHARGES


@<TRIPOS>ATOM
1 C1    -0.0000     1.8862     0.0000 C
2 C2    -1.4747     1.1760     0.0000 C
3 C3    -1.8389    -0.4197     0.0000 C
4 C4    -0.8184    -1.6994     0.0000 C
5 C5     0.8184    -1.6994     0.0000 C
6 C6     1.8389    -0.4197     0.0000 C
7 C7     1.4747     1.1760     0.0000 C
8 O8     2.5927     2.0676     0.0000 O
9 H9     3.4075     1.5599     0.0000 H
10 O10     3.2331    -0.7379     0.0000 O
11 H11     3.3441    -1.6915     0.0000 H
12 O12     1.4388    -2.9878     0.0000 O
13 H13     0.7626    -3.6691     0.0000 H
14 O14    -1.4388    -2.9878     0.0000 O
15 H15    -2.3932    -2.8839     0.0000 H
16 O16    -3.2331    -0.7379     0.0000 O
17 H17    -3.7468     0.0730     0.0000 H
18 O18    -2.5927     2.0676     0.0000 O
19 H19    -2.2790     2.9749     0.0000 H
20 O20    -0.0000     3.3162     0.0000 O
21 H21     0.9049     3.6367     0.0000 H
@<TRIPOS>BOND
1 1 2 1
2 1 7 1
3 1 20 1
4 2 3 1
5 2 18 1
6 3 4 1
7 3 16 1
8 4 5 1
9 4 14 1
10 5 6 1
11 5 12 1
12 6 7 1
13 6 10 1
14 7 8 1
15 8 9 1
16 10 11 1
17 12 13 1
18 14 15 1
19 16 17 1
20 18 19 1
21 20 21 1
