@<TRIPOS>MOLECULE
Molecule Name
24 24
SMALL
NO_CHARGES


@<TRIPOS>ATOM
1 C1     0.0000     1.6981     0.0000 C
2 C2    -1.2007     1.2007     0.0000 C
3 C3    -1.6981     0.0000     0.0000 C
4 C4    -1.2007    -1.2007     0.0000 C
5 C5    -0.0000    -1.6981     0.0000 C
6 C6     1.2007    -1.2007     0.0000 C
7 C7     1.6981    -0.0000     0.0000 C
8 C8     1.2007     1.2007     0.0000 C
9 O9     2.2119     2.2119     0.0000 O
10 H10     3.0784     1.7986     0.0000 H
11 O11     3.1281    -0.0000     0.0000 O
12 H12     3.4486    -0.9049     0.0000 H
13 O13     2.2119    -2.2119     0.0000 O
14 H14     1.7986    -3.0784     0.0000 H
15 O15    -0.0000    -3.1281     0.0000 O
16 H16    -0.9049    -3.4486     0.0000 H
17 O17    -2.2119    -2.2119     0.0000 O
18 H18    -3.0784    -1.7986     0.0000 H
19 O19    -3.1281     0.0000     0.0000 O
20 H20    -3.4486     0.9049     0.0000 H
21 O21    -2.2119     2.2119     0.0000 O
22 H22    -1.7986     3.0784     0.0000 H
23 O23    -0.0000     3.1281     0.0000 O
24 H24     0.9049     3.4486     0.0000 H
@<TRIPOS>BOND
1 1 2 3
2 1 8 3
3 1 23 1
4 2 3 3
5 2 21 1
6 3 4 3
7 3 19 1
8 4 5 3
9 4 17 1
10 5 6 3
11 5 15 1
12 6 7 3
13 6 13 1
14 7 8 3
15 7 11 1
16 8 9 1
17 9 10 1
18 11 12 1
19 13 14 1
20 15 16 1
21 17 18 1
22 19 20 1
23 21 22 1
24 23 24 1
