# http://pg.minglab.cn/static/model/2,3-dihydroxybutandioic_acid.mol
# Created by GaussView 5.0.9
#

#
#

@<TRIPOS>MOLECULE
Molecule Name
16 15
SMALL
NO_CHARGES


@<TRIPOS>ATOM
1 C1     0.5878    -0.4697    -0.0279 C
2 H2     0.2824    -1.4092    -0.4970 H
3 C3    -0.5878     0.4697     0.0279 C
4 H4    -0.2824     1.4092     0.4970 H
5 O5    -1.0210     0.6346    -1.3581 O
6 H6    -1.7004     1.3614    -1.3587 H
7 O7     1.0210    -0.6346     1.3581 O
8 H8     1.7004    -1.3614     1.3587 H
9 C9    -1.7492    -0.1438     0.7870 C
10 O10    -1.8948    -1.2968     1.1577 O
11 O11    -2.7350     0.8267     0.9003 O
12 H12    -3.5424     0.4155     1.3173 H
13 C13     1.7492     0.1438    -0.7870 C
14 O14     1.8948     1.2968    -1.1577 O
15 O15     2.7350    -0.8267    -0.9003 O
16 H16     3.5424    -0.4155    -1.3173 H
@<TRIPOS>BOND
1 1 2 1
2 1 3 1
3 1 7 1
4 1 13 1
5 3 4 1
6 3 5 1
7 3 9 1
8 5 6 1
9 7 8 1
10 9 10 2
11 9 11 1
12 11 12 1
13 13 14 2
14 13 15 1
15 15 16 1
