# Molecule Name
# Created by GaussView 6.0.16
#

#
#

@<TRIPOS>MOLECULE
Molecule Name
19 18
SMALL
NO_CHARGES


@<TRIPOS>ATOM
1 As1     0.0000     0.0000     0.0000 As
2 N2    -0.2903    -1.3817     1.2863 N
3 N3     0.2903     1.3817    -1.2863 N
4 N4    -1.8654     0.0101    -0.4101 N
5 N5     1.8654    -0.0101     0.4101 N
6 N6    -0.2898     1.3186     1.3510 N
7 N7     0.2898    -1.3186    -1.3510 N
8 N8    -1.4641     1.7643     1.5647 N
9 N9     2.3199    -0.8117     1.2899 N
10 N10     1.4641    -1.7643    -1.5647 N
11 N11    -2.3199     0.8117    -1.2899 N
12 N12     1.4647     1.8367    -1.4784 N
13 N13    -1.4647    -1.8367     1.4784 N
14 N14    -2.7553    -2.3366     1.6895 N
15 N15    -2.7545     2.2540     1.7995 N
16 N16     2.7553     2.3366    -1.6895 N
17 N17     2.7545    -2.2540    -1.7995 N
18 N18     2.8192    -1.6926     2.2568 N
19 N19    -2.8192     1.6926    -2.2568 N
@<TRIPOS>BOND
1 1 2 1
2 1 3 1
3 1 4 1
4 1 5 1
5 1 6 1
6 1 7 1
7 2 13 Ar
8 3 12 Ar
9 4 11 Ar
10 5 9 Ar
11 6 8 Ar
12 7 10 Ar
13 8 15 1
14 9 18 1
15 10 17 1
16 11 19 1
17 12 16 1
18 13 14 1
