# http://pg.minglab.cn/static/model/ethane_FCIH.mol
# Created by GaussView 5.0.9
#

#
#

@<TRIPOS>MOLECULE
Molecule Name
8 7
SMALL
NO_CHARGES


@<TRIPOS>ATOM
1 C1     0.5204     0.6271    -0.4581 C
2 H2     0.2661    -0.1230    -1.1775 H
3 C3    -0.7672     1.2666     0.0937 C
4 H4    -0.5128     2.0166     0.8134 H
5 F5     1.2781     1.5768    -1.0468 F
6 F6    -1.5249     0.3169     0.6822 F
7 Cl7     1.4226    -0.1083     0.8620 Cl
8 Cl8    -1.6692     2.0023    -1.2264 Cl
@<TRIPOS>BOND
1 1 2 1
2 1 3 1
3 1 5 1
4 1 7 1
5 3 4 1
6 3 6 1
7 3 8 1
