# http://pg.minglab.cn/static/model/15_1_2-benzenediol_AV.mol
# Created by GaussView 5.0.9
#

#
#

@<TRIPOS>MOLECULE
Molecule Name
14 14
SMALL
NO_CHARGES


@<TRIPOS>ATOM
1 C1    -0.2982    -3.2897     0.0000 C
2 C2     1.0680    -3.5302     0.0000 C
3 C3     1.9489    -2.4478     0.0000 C
4 C4     1.4549    -1.1388     0.0000 C
5 C5     0.0771    -0.9040     0.0000 C
6 C6    -0.7937    -1.9876     0.0000 C
7 H7     1.4423    -4.5492     0.0000 H
8 H8    -0.2889     0.1173     0.0000 H
9 H9     3.0216    -2.6243     0.0000 H
10 H10     2.1485    -0.3014     0.0000 H
11 O11    -1.1619    -4.3476     0.0000 O
12 H12    -2.0488    -3.9360     0.0000 H
13 O13    -2.1517    -1.8239     0.0000 O
14 H14    -2.3387    -0.8695     0.0000 H
@<TRIPOS>BOND
1 1 2 Ar
2 1 6 Ar
3 1 11 1
4 2 3 Ar
5 2 7 1
6 3 4 Ar
7 3 9 1
8 4 5 Ar
9 4 10 1
10 5 6 Ar
11 5 8 1
12 6 13 1
13 11 12 1
14 13 14 1
