# http://pg.minglab.cn/static/model/2-chloro-naphthalene.mol
# Created by GaussView 5.0.9
#

#
#

@<TRIPOS>MOLECULE
Molecule Name
18 19
SMALL
NO_CHARGES


@<TRIPOS>ATOM
1 C1     4.0145    -1.3200     0.2325 C
2 C2     2.8256    -0.6336     0.2325 C
3 C3     1.5877    -1.3336     0.2325 C
4 C4     1.5975    -2.7524     0.2328 C
5 C5     2.8432    -3.4377     0.2330 C
6 C6     4.0237    -2.7360     0.2327 C
7 H7     0.3449     0.4520     0.2322 H
8 H8     2.8086     0.4666     0.2322 H
9 C9     0.3417    -0.6483     0.2322 C
10 C10     0.3592    -3.4516     0.2329 C
11 H11     2.8398    -4.5379     0.2331 H
12 H12     4.9892    -3.2629     0.2328 H
13 C13    -0.8297    -2.7653     0.2327 C
14 C14    -0.8388    -1.3491     0.2322 C
15 H15     0.3758    -4.5519     0.2332 H
16 H16    -1.7885    -3.3045     0.2325 H
17 H17    -1.8045    -0.8222     0.2320 H
18 Cl18     5.5484    -0.4573     0.2323 Cl
@<TRIPOS>BOND
1 1 2 Ar
2 1 6 Ar
3 1 18 1
4 2 3 Ar
5 2 8 1
6 3 4 Ar
7 3 9 Ar
8 4 5 Ar
9 4 10 Ar
10 5 6 Ar
11 5 11 1
12 6 12 1
13 7 9 1
14 9 14 Ar
15 10 13 Ar
16 10 15 1
17 13 14 Ar
18 13 16 1
19 14 17 1
