# Title
# Created by GaussView 6.0.16
#

#
#

@<TRIPOS>MOLECULE
Molecule Name
13 13
SMALL
NO_CHARGES


@<TRIPOS>ATOM
1 C1     0.1149     1.2298     0.0000 C
2 C2    -0.0878     0.3165    -1.2363 C
3 C3     0.0380    -1.0764    -0.6609 C
4 C4     0.0380    -1.0764     0.6609 C
5 C5    -0.0878     0.3165     1.2363 C
6 H6    -0.5573     2.0756     0.0000 H
7 H7     0.6423     0.5132    -2.0110 H
8 H8    -1.0654     0.4599    -1.6854 H
9 H9     0.0939    -1.9510    -1.2767 H
10 H10     0.0939    -1.9510     1.2767 H
11 H11     0.6423     0.5132     2.0110 H
12 H12    -1.0654     0.4599     1.6854 H
13 H13     1.1241     1.6196     0.0000 H
@<TRIPOS>BOND
1 1 2 1
2 1 5 1
3 1 6 1
4 1 13 1
5 2 3 1
6 2 7 1
7 2 8 1
8 3 4 2
9 3 9 1
10 4 5 1
11 4 10 1
12 5 11 1
13 5 12 1
