# http://pg.minglab.cn/static/model/14_methylbenzene_AV.mol
# Created by GaussView 5.0.9
#

#
#

@<TRIPOS>MOLECULE
Molecule Name
15 15
SMALL
NO_CHARGES


@<TRIPOS>ATOM
1 C1    -0.3055     3.1680    -0.9419 C
2 C2    -1.7013     3.1643    -0.9389 C
3 C3    -2.3951     2.0065    -0.5926 C
4 C4    -1.6936     0.8522    -0.2492 C
5 C5    -0.2975     0.8545    -0.2517 C
6 C6     0.4083     2.0129    -0.5982 C
7 H7    -2.2469     4.0651    -1.2070 H
8 H8     0.2345    -0.0545     0.0188 H
9 H9    -3.4817     2.0036    -0.5903 H
10 H10    -2.2337    -0.0513     0.0212 H
11 C11     1.9080     2.0304    -0.6055 C
12 H12     0.2243     4.0781    -1.2142 H
13 H13     2.3227     1.0591    -0.3164 H
14 H14     2.2797     2.7781     0.1025 H
15 H15     2.2775     2.2681    -1.6081 H
@<TRIPOS>BOND
1 1 2 Ar
2 1 6 Ar
3 1 12 1
4 2 3 Ar
5 2 7 1
6 3 4 Ar
7 3 9 1
8 4 5 Ar
9 4 10 1
10 5 6 Ar
11 5 8 1
12 6 11 1
13 11 13 1
14 11 14 1
15 11 15 1
