# http://pg.minglab.cn/static/model/17_p-hydroxybenzoic_acid_AV.mol
# Created by GaussView 5.0.9
#

#
#

@<TRIPOS>MOLECULE
Molecule Name
16 16
SMALL
NO_CHARGES


@<TRIPOS>ATOM
1 C1     0.7776     0.3934     0.0000 C
2 C2    -0.6171     0.3305     0.0000 C
3 C3    -1.2638    -0.9122     0.0000 C
4 C4    -0.5034    -2.0902     0.0000 C
5 C5     0.8932    -2.0250     0.0000 C
6 C6     1.5202    -0.7823     0.0000 C
7 H7     1.2820     1.3559     0.0000 H
8 H8    -1.1955     1.2523     0.0000 H
9 H9     1.4675    -2.9462     0.0000 H
10 H10    -0.9896    -3.0629     0.0000 H
11 C11    -2.7467    -0.9328     0.0000 C
12 O12     2.8788    -0.6729     0.0000 O
13 H13     3.2652    -1.5640     0.0000 H
14 O14    -3.4748     0.0424     0.0000 O
15 O15    -3.2515    -2.1795     0.0000 O
16 H16    -4.2214    -2.0369     0.0000 H
@<TRIPOS>BOND
1 1 2 Ar
2 1 6 Ar
3 1 7 1
4 2 3 Ar
5 2 8 1
6 3 4 Ar
7 3 11 1
8 4 5 Ar
9 4 10 1
10 5 6 Ar
11 5 9 1
12 6 12 1
13 11 14 2
14 11 15 1
15 12 13 1
16 15 16 1
