# http://pg.minglab.cn/static/model/18_TNT_AV.mol
# Created by GaussView 5.0.9
#

#
#

@<TRIPOS>MOLECULE
Molecule Name
21 21
SMALL
NO_CHARGES


@<TRIPOS>ATOM
1 C1     1.6649    -6.9651     0.0741 C
2 C2     0.3666    -7.4819    -0.0760 C
3 C3    -0.7096    -6.5944    -0.1764 C
4 C4    -0.4972    -5.2126    -0.1401 C
5 C5     0.8133    -4.7279     0.0109 C
6 C6     1.9281    -5.5811     0.1517 C
7 H7    -1.3296    -4.5140    -0.2326 H
8 H8     0.2105    -8.5603    -0.1182 H
9 C9     3.3230    -5.0446     0.3491 C
10 H10     3.3167    -4.1004     0.9029 H
11 H11     3.8073    -4.8884    -0.6195 H
12 H12     3.9348    -5.7251     0.9500 H
13 N13     2.7506    -7.9370     0.1362 N
14 N14     0.9776    -3.2788     0.0044 N
15 N15    -2.0727    -7.1178    -0.3400 N
16 O16     3.6520    -7.8282    -0.7029 O
17 O17     2.6702    -8.8062     1.0119 O
18 O18     1.7382    -2.8023    -0.8457 O
19 O19     0.3245    -2.6409     0.8384 O
20 O20    -2.2119    -8.3467    -0.3776 O
21 O21    -2.9926    -6.2957    -0.4343 O
@<TRIPOS>BOND
1 1 2 Ar
2 1 6 Ar
3 1 13 1
4 2 3 Ar
5 2 8 1
6 3 4 Ar
7 3 15 1
8 4 5 Ar
9 4 7 1
10 5 6 Ar
11 5 14 1
12 6 9 1
13 9 10 1
14 9 11 1
15 9 12 1
16 13 16 2
17 13 17 2
18 14 18 2
19 14 19 2
20 15 20 2
21 15 21 2
