@<TRIPOS>MOLECULE
generated by VMD
   13    0    1    0    0
SMALL
NO_CHARGES
****
Energy = 0

@<TRIPOS>ATOM
      1  C         -0.0001   -0.9410    0.0261    C    1             0.000000
      2  C          1.1967   -0.2156   -0.0155    C    1             0.000000
      3  C          1.2052    1.1806   -0.0148    C    1             0.000000
      4  C          0.0002    1.8846   -0.0062    C    1             0.000000
      5  C         -1.2050    1.1808   -0.0146    C    1             0.000000
      6  C         -1.1968   -0.2154   -0.0153    C    1             0.000000
      7  O         -0.0002   -2.3024   -0.0154    O    1             0.000000
      8  H          2.1555   -0.7589   -0.0450    H    1             0.000000
      9  H          2.1624    1.7266   -0.0334    H    1             0.000000
     10  H          0.0002    2.9864   -0.0133    H    1             0.000000
     11  H         -2.1622    1.7270   -0.0330    H    1             0.000000
     12  H         -2.1557   -0.7585   -0.0447    H    1             0.000000
     13  H         -0.0001   -2.6079    0.9055    H    1             0.000000

@<TRIPOS>SUBSTRUCTURE
1 ****        1 TEMP                        0 ****  **** 0 ROOT
@<TRIPOS>MOLECULE
generated by VMD
   13    0    1    0    0
SMALL
NO_CHARGES
****
Energy = 0

@<TRIPOS>ATOM
      1  C          0.0000    0.0000    0.0000    C    1             0.000000
      2  C          0.0000    0.0000    0.0000    C    1             0.000000
      3  C          0.0027   -1.1631   -0.0260    C    1             0.000000
      4  C          1.1992   -0.4377   -0.0676    C    1             0.000000
      5  C          1.2077    0.9585   -0.0669    C    1             0.000000
      6  C          0.0030    1.6625   -0.0583    C    1             0.000000
      7  O         -1.2020    0.9587   -0.0674    O    1             0.000000
      8  H         -1.1940   -0.4375   -0.0674    H    1             0.000000
      9  H          0.0033   -2.5245   -0.0675    H    1             0.000000
     10  H          2.1580   -0.9810   -0.0971    H    1             0.000000
     11  H          2.1649    1.5045   -0.0855    H    1             0.000000
     12  H          0.0034    2.7643   -0.0654    H    1             0.000000
     13  H         -2.1587    1.5056   -0.0868    H    1             0.000000

@<TRIPOS>SUBSTRUCTURE
1 ****        1 TEMP                        0 ****  **** 0 ROOT
