# http://pg.minglab.cn/static/model/C16H14O2.mol
# Created by GaussView 5.0.9
#

#
#

@<TRIPOS>MOLECULE
Molecule Name
32 35
SMALL
NO_CHARGES


@<TRIPOS>ATOM
1 C1     1.2567     1.3808     0.3229 C
2 C2     1.2964     2.6710     0.8586 C
3 C3     0.1318     3.2858     1.3206 C
4 C4    -1.0849     2.6046     1.2617 C
5 C5    -1.1491     1.3033     0.7559 C
6 C6     0.0277     0.6898     0.2772 C
7 H7     2.2429     3.1992     0.9011 H
8 H8     0.1720     4.2906     1.7245 H
9 H9    -1.9912     3.0791     1.6222 H
10 C10    -0.0277    -0.6898    -0.2772 C
11 C11    -1.0465    -1.0418    -1.1873 C
12 C12     0.9389    -1.6423     0.1085 C
13 C13    -1.0943    -2.3451    -1.6898 C
14 C14     0.8828    -2.9306    -0.4306 C
15 C15    -0.1318    -3.2858    -1.3206 C
16 H16    -1.8825    -2.6179    -2.3833 H
17 H17     1.6308    -3.6603    -0.1400 H
18 H18    -0.1720    -4.2906    -1.7245 H
19 C19    -2.0531     0.0081    -1.6192 C
20 H20    -1.5067     0.9093    -1.9261 H
21 H21    -2.6387    -0.3553    -2.4669 H
22 C22    -2.4535     0.5285     0.7339 C
23 H23    -3.2145     1.0522     1.3170 H
24 H24    -2.2802    -0.4585     1.1821 H
25 C25     2.0032    -1.2548     1.1181 C
26 H26     1.5119    -0.7807     1.9777 H
27 H27     2.5385    -2.1424     1.4629 H
28 C28     2.5034     0.7182    -0.2328 C
29 H29     3.3147     1.4455    -0.3131 H
30 H30     2.2750     0.3299    -1.2338 H
31 O31     3.0489    -0.3630     0.5990 O
32 O32    -3.0489     0.3630    -0.5990 O
@<TRIPOS>BOND
1 1 2 Ar
2 1 6 Ar
3 1 28 1
4 2 3 Ar
5 2 7 1
6 3 4 Ar
7 3 8 1
8 4 5 Ar
9 4 9 1
10 5 6 Ar
11 5 22 1
12 6 10 1
13 10 11 Ar
14 10 12 Ar
15 11 13 Ar
16 11 19 1
17 12 14 Ar
18 12 25 1
19 13 15 Ar
20 13 16 1
21 14 15 Ar
22 14 17 1
23 15 18 1
24 19 20 1
25 19 21 1
26 19 32 1
27 22 23 1
28 22 24 1
29 22 32 1
30 25 26 1
31 25 27 1
32 25 31 1
33 28 29 1
34 28 30 1
35 28 31 1
