# http://pg.minglab.cn/static/model/21_Diphenyl_AV.mol
# Created by GaussView 5.0.9
#

#
#

@<TRIPOS>MOLECULE
Molecule Name
22 23
SMALL
NO_CHARGES


@<TRIPOS>ATOM
1 C1    -3.0402    -4.3098     1.7432 C
2 C2    -4.4376    -4.2937     1.7673 C
3 C3    -5.1314    -3.2047     1.2459 C
4 C4    -4.4295    -2.1324     0.7015 C
5 C5    -3.0322    -2.1496     0.6793 C
6 C6    -2.3121    -3.2383     1.1992 C
7 H7    -2.5173    -5.1651     2.1663 H
8 H8    -4.9817    -5.1312     2.1961 H
9 H9    -6.2179    -3.1919     1.2639 H
10 H10    -4.9673    -1.2821     0.2906 H
11 H11    -2.5033    -1.3068     0.2387 H
12 C12    -0.8401    -3.2559     1.1749 C
13 C13    -0.0940    -2.1976     1.7204 C
14 C14     1.3033    -2.2137     1.6983 C
15 C15     1.9791    -3.2894     1.1282 C
16 C16     1.2594    -4.3486     0.5813 C
17 C17    -0.1379    -4.3313     0.6055 C
18 H18     3.0657    -3.3024     1.1103 H
19 H19     1.7832    -5.1885     0.1326 H
20 H20    -0.6025    -1.3529     2.1811 H
21 H21     1.8614    -1.3866     2.1291 H
22 H22    -0.6813    -5.1635     0.1622 H
@<TRIPOS>BOND
1 1 2 Ar
2 1 6 Ar
3 1 7 1
4 2 3 Ar
5 2 8 1
6 3 4 Ar
7 3 9 1
8 4 5 Ar
9 4 10 1
10 5 6 Ar
11 5 11 1
12 6 12 1
13 12 13 Ar
14 12 17 Ar
15 13 14 Ar
16 13 20 1
17 14 15 Ar
18 14 21 1
19 15 16 Ar
20 15 18 1
21 16 17 Ar
22 16 19 1
23 17 22 1
