# 5460768
# Created by GaussView 6.0.16
#

#
#

@<TRIPOS>MOLECULE
Molecule Name
26 28
SMALL
NO_CHARGES


@<TRIPOS>ATOM
1 C1     0.6363     1.1257     0.4697 C
2 C2    -0.6363     1.1257    -0.4697 C
3 C3     0.6363    -1.1257    -0.4697 C
4 C4    -0.6363    -1.1257     0.4697 C
5 C5     1.5817    -0.0000     0.0000 C
6 C6    -1.5817    -0.0000     0.0000 C
7 C7    -0.2316     0.7385    -1.9106 C
8 C8     0.2316    -0.7385    -1.9106 C
9 C9     0.2316     0.7385     1.9106 C
10 C10    -0.2316    -0.7385     1.9106 C
11 H11     1.1409     2.0968     0.4484 H
12 H12    -1.1409     2.0968    -0.4484 H
13 H13     1.1409    -2.0968    -0.4484 H
14 H14    -1.1409    -2.0968     0.4484 H
15 H15     2.2406    -0.3412     0.8076 H
16 H16     2.2406     0.3412    -0.8076 H
17 H17    -2.2406     0.3412     0.8076 H
18 H18    -2.2406    -0.3412    -0.8076 H
19 H19    -1.0730     0.8602    -2.6025 H
20 H20     0.5714     1.3949    -2.2662 H
21 H21     1.0730    -0.8602    -2.6025 H
22 H22    -0.5714    -1.3949    -2.2662 H
23 H23    -0.5714     1.3949     2.2662 H
24 H24     1.0730     0.8602     2.6025 H
25 H25     0.5714    -1.3949     2.2662 H
26 H26    -1.0730    -0.8602     2.6025 H
@<TRIPOS>BOND
1 1 2 1
2 1 5 1
3 1 9 1
4 1 11 1
5 2 6 1
6 2 7 1
7 2 12 1
8 3 4 1
9 3 5 1
10 3 8 1
11 3 13 1
12 4 6 1
13 4 10 1
14 4 14 1
15 5 15 1
16 5 16 1
17 6 17 1
18 6 18 1
19 7 8 1
20 7 19 1
21 7 20 1
22 8 21 1
23 8 22 1
24 9 10 1
25 9 23 1
26 9 24 1
27 10 25 1
28 10 26 1
