# Molecule Name
# Created by GaussView 6.0.16
#

#
#

@<TRIPOS>MOLECULE
Molecule Name
22 23
SMALL
NO_CHARGES


@<TRIPOS>ATOM
1 C1    -3.0325    -4.0912     2.0524 C
2 C2    -4.4299    -4.0747     2.0766 C
3 C3    -5.1314    -3.2046     1.2459 C
4 C4    -4.4372    -2.3513     0.3923 C
5 C5    -3.0399    -2.3682     0.3702 C
6 C6    -2.3121    -3.2383     1.1992 C
7 H7    -2.5035    -4.7704     2.7178 H
8 H8    -4.9679    -4.7401     2.7467 H
9 H9    -6.2179    -3.1918     1.2640 H
10 H10    -4.9811    -1.6731    -0.2599 H
11 H11    -2.5171    -1.7015    -0.3128 H
12 C12    -0.8401    -3.2559     1.1749 C
13 C13    -0.0917    -2.4236     2.0243 C
14 C14     1.3056    -2.4400     2.0023 C
15 C15     1.9791    -3.2894     1.1283 C
16 C16     1.2571    -4.1222     0.2774 C
17 C17    -0.1402    -4.1053     0.3017 C
18 H18     3.0657    -3.3024     1.1104 H
19 H19     1.7791    -4.7842    -0.4085 H
20 H20    -0.5984    -1.7609     2.7230 H
21 H21     1.8655    -1.7908     2.6703 H
22 H22    -0.6854    -4.7556    -0.3797 H
@<TRIPOS>BOND
1 1 2 Ar
2 1 6 Ar
3 1 7 1
4 2 3 Ar
5 2 8 1
6 3 4 Ar
7 3 9 1
8 4 5 Ar
9 4 10 1
10 5 6 Ar
11 5 11 1
12 6 12 1
13 12 13 Ar
14 12 17 Ar
15 13 14 Ar
16 13 20 1
17 14 15 Ar
18 14 21 1
19 15 16 Ar
20 15 18 1
21 16 17 Ar
22 16 19 1
23 17 22 1
