# http://pg.minglab.cn/static/model/29_spiropentane_AV.mol
# Created by GaussView 5.0.9
#

#
#

@<TRIPOS>MOLECULE
Molecule Name
13 14
SMALL
NO_CHARGES


@<TRIPOS>ATOM
1 C1     1.6166     0.0980    -0.2145 C
2 C2     2.8811    -0.0117     0.5014 C
3 C3     2.8233     0.0605    -1.0308 C
4 H4     3.1383    -0.9632     0.9499 H
5 H5     3.2501     0.8573     1.0315 H
6 H6     3.0425    -0.8436    -1.5847 H
7 H7     3.1543     0.9769    -1.5032 H
8 C8     0.4281     0.9369    -0.1300 C
9 C9     0.3341    -0.5936    -0.1987 C
10 H10     0.0436    -1.1197     0.7020 H
11 H11    -0.0252    -1.0338    -1.1204 H
12 H12     0.1303     1.4980    -1.0069 H
13 H13     0.1992     1.4121     0.8155 H
@<TRIPOS>BOND
1 1 2 1
2 1 3 1
3 1 8 1
4 1 9 1
5 2 3 1
6 2 4 1
7 2 5 1
8 3 6 1
9 3 7 1
10 8 9 1
11 8 12 1
12 8 13 1
13 9 10 1
14 9 11 1
