@<TRIPOS>MOLECULE
generated by VMD
    8    0    1    0    0
SMALL
NO_CHARGES
****
Energy = 0

@<TRIPOS>ATOM
      1  N          2.0000    0.0000    0.0000    N    1             0.000000
      2  N          0.0000    2.0000    0.0000    N    1             0.000000
      3  N         -2.0000    0.0000    0.0000    N    1             0.000000
      4  N          0.0000   -2.0000    0.0000    N    1             0.000000
      5  S          3.0000   -3.0000    3.0000    S    1             0.000000
      6  S         -3.0000    3.0000    3.0000    S    1             0.000000
      7  S          3.0000    3.0000   -3.0000    S    1             0.000000
      8  S         -3.0000   -3.0000   -3.0000    S    1             0.000000

@<TRIPOS>SUBSTRUCTURE
1 ****        1 TEMP                        0 ****  **** 0 ROOT
