# http://pg.minglab.cn/static/model/ethene.mol
# Created by GaussView 5.0.9
#

#
#

@<TRIPOS>MOLECULE
Molecule Name
6 5
SMALL
NO_CHARGES


@<TRIPOS>ATOM
1 C1    -0.0042    -3.4015     0.0000 C
2 H2     0.5647    -2.4953     0.0000 H
3 H3     0.4981    -4.3463     0.0000 H
4 C4    -1.3586    -3.3568     0.0000 C
5 H5    -1.9276    -4.2630     0.0000 H
6 H6    -1.8609    -2.4120     0.0000 H
@<TRIPOS>BOND
1 1 2 1
2 1 3 1
3 1 4 2
4 4 5 1
5 4 6 1
