# Title
# Created by GaussView 6.0.16
#

#
#

@<TRIPOS>MOLECULE
Molecule Name
22 23
SMALL
NO_CHARGES


@<TRIPOS>ATOM
1 C1    -1.8234     0.1699     0.0000 C
2 C2    -0.4859     0.2076    -0.4200 C
3 C3     0.2182     1.4099    -0.4192 C
4 C4    -0.4036     2.5868    -0.0028 C
5 C5    -1.7339     2.5576     0.4150 C
6 C6    -2.4413     1.3571     0.4186 C
7 C7    -2.5638    -1.0906     0.0013 C
8 C8    -1.9459    -2.2778    -0.4175 C
9 C9    -2.6540    -3.4777    -0.4167 C
10 C10    -3.9836    -3.5076     0.0036 C
11 C11    -4.6045    -2.3312     0.4227 C
12 C12    -3.9013    -1.1283     0.4211 C
13 H13     0.0100    -0.7197    -0.7441 H
14 H14     1.2678     1.4290    -0.7472 H
15 H15     0.1533     3.5349    -0.0039 H
16 H16    -2.2281     3.4842     0.7420 H
17 H17    -3.4924     1.3393     0.7438 H
18 H18    -0.8988    -2.2575    -0.7553 H
19 H19    -2.1619    -4.4032    -0.7501 H
20 H20    -4.5404    -4.4557     0.0045 H
21 H21    -5.6523    -2.3514     0.7569 H
22 H22    -4.3933    -0.2034     0.7578 H
@<TRIPOS>BOND
1 1 2 Ar
2 1 6 Ar
3 1 7 1
4 2 3 Ar
5 2 13 1
6 3 4 Ar
7 3 14 1
8 4 5 Ar
9 4 15 1
10 5 6 Ar
11 5 16 1
12 6 17 1
13 7 8 Ar
14 7 12 Ar
15 8 9 Ar
16 8 18 1
17 9 10 Ar
18 9 19 1
19 10 11 Ar
20 10 20 1
21 11 12 Ar
22 11 21 1
23 12 22 1
