# generated by VMD
# Created by GaussView 6.0.16
#

#
#

@<TRIPOS>MOLECULE
Molecule Name
39 38
SMALL
NO_CHARGES


@<TRIPOS>ATOM
1 Br1     0.0223    -2.4220     0.0000 Br
2 Br2    -2.4696     0.0234     0.0000 Br
3 Br3    -0.0700     2.4687     0.0000 Br
4 Br4     2.4220     0.0234     0.0000 Br
5 C5    -0.8325    -0.8007    -2.7958 C
6 C6     0.7848     0.8474     2.7958 C
7 C7    -0.8588    -0.8273    -4.2005 C
8 C8     0.8112     0.8742     4.2004 C
9 C9    -1.8105    -1.7971    -4.8807 C
10 C10     1.7628     1.8439     4.8806 C
11 C11    -0.0067     0.0409    -4.8819 C
12 C12    -0.0409     0.0059     4.8819 C
13 C13     0.8437     0.9073    -4.1713 C
14 C14    -0.8913    -0.8607     4.1712 C
15 C15     1.7748     1.8562    -4.8926 C
16 C16    -1.8224    -1.8096     4.8925 C
17 C17     0.7904     0.8530    -2.7935 C
18 C18    -0.8380    -0.8063     2.7934 C
19 Ge19    -0.0238     0.0233     0.0000 Ge
20 N20    -0.0060     0.0416    -2.1115 N
21 N21    -0.0416     0.0052     2.1114 N
22 H22    -2.3173    -2.3137    -4.1964 H
23 H23    -1.2945    -2.4213    -5.4467 H
24 H24    -2.4442    -1.2930    -5.4468 H
25 H25     2.2697     2.3605     4.1963 H
26 H26     1.2468     2.4681     5.4467 H
27 H27     2.3965     1.3398     5.4467 H
28 H28     2.2751     2.3662    -4.1539 H
29 H29     2.3972     1.3408    -5.4107 H
30 H30     1.2475     2.4690    -5.4107 H
31 H31    -2.3227    -2.3194     4.1538 H
32 H32    -2.4449    -1.2940     5.4106 H
33 H33    -1.2952    -2.4223     5.4106 H
34 H34     0.0004     0.0482    -5.9519 H
35 H35     1.4322     1.5069    -2.2408 H
36 H36    -1.4767    -1.4574    -2.2494 H
37 H37     1.4291     1.5041     2.2494 H
38 H38    -1.4798    -1.4601     2.2406 H
39 H39    -0.0480    -0.0013     5.9519 H
@<TRIPOS>BOND
1 1 19 1
2 2 19 1
3 3 19 1
4 4 19 1
5 5 7 Ar
6 5 20 Ar
7 5 36 1
8 6 8 Ar
9 6 21 Ar
10 6 37 1
11 7 9 1
12 7 11 Ar
13 8 10 1
14 8 12 Ar
15 9 22 1
16 9 23 1
17 9 24 1
18 10 25 1
19 10 26 1
20 10 27 1
21 11 13 Ar
22 11 34 1
23 12 14 Ar
24 12 39 1
25 13 15 1
26 13 17 2
27 14 16 1
28 14 18 2
29 15 28 1
30 15 29 1
31 15 30 1
32 16 31 1
33 16 32 1
34 16 33 1
35 17 20 Ar
36 17 35 1
37 18 21 Ar
38 18 38 1
