# Molecule Name
# Created by GaussView 6.0.16
#

#
#

@<TRIPOS>MOLECULE
Molecule Name
8 7
SMALL
NO_CHARGES


@<TRIPOS>ATOM
1 C1     1.3571     1.4478     0.6383 C
2 H2     2.2031     1.9973     0.2817 H
3 H3     0.4582     1.9057     0.2817 H
4 H4     1.4100     0.4403     0.2817 H
5 C5     1.3571     1.4478     2.1783 C
6 H6     0.9629     2.3763     2.5350 H
7 H7     0.7501     0.6420     2.5350 H
8 H8     2.3584     1.3249     2.5350 H
@<TRIPOS>BOND
1 1 2 1
2 1 3 1
3 1 4 1
4 1 5 1
5 5 6 1
6 5 7 1
7 5 8 1
