# http://pg.minglab.cn/static/model/ethane-fo.mol
# Created by GaussView 5.0.9
#

#
#

@<TRIPOS>MOLECULE
Molecule Name
8 7
SMALL
NO_CHARGES


@<TRIPOS>ATOM
1 C1    -1.0700    -1.9878     0.0293 C
2 H2    -1.4393    -2.8562     0.5337 H
3 H3    -1.4140    -1.1091     0.5337 H
4 H4    -1.4267    -1.9827    -0.9795 H
5 C5     0.4698    -2.0101     0.0293 C
6 H6     0.8264    -2.0153    -0.9795 H
7 H7     0.8391    -1.1418     0.5337 H
8 H8     0.8138    -2.8889     0.5337 H
@<TRIPOS>BOND
1 1 2 1
2 1 3 1
3 1 4 1
4 1 5 1
5 5 6 1
6 5 7 1
7 5 8 1
