# http://pg.minglab.cn/static/model/28_Bicyclo(1.1.1)pentane_AV.mol
# Created by GaussView 5.0.9
#

#
#

@<TRIPOS>MOLECULE
Molecule Name
13 14
SMALL
NO_CHARGES


@<TRIPOS>ATOM
1 C1     0.5073     0.5563    -0.5627 C
2 C2     1.0253    -0.4130     0.5160 C
3 H3     1.0848     1.1895    -1.2033 H
4 C4    -0.5630     0.9793     0.4606 C
5 C5    -0.4624    -0.5663    -0.9766 C
6 H6    -0.2744     1.5701     1.3048 H
7 C7    -0.5073    -0.5563     0.5627 C
8 H8    -1.4606     1.4479     0.1146 H
9 H9     1.5397    -0.0202     1.3680 H
10 H10     1.6200    -1.2526     0.2221 H
11 H11    -0.0791    -1.4277    -1.4826 H
12 H12    -1.3456    -0.3175    -1.5268 H
13 H13    -1.0848    -1.1895     1.2033 H
@<TRIPOS>BOND
1 1 2 1
2 1 3 1
3 1 4 1
4 1 5 1
5 2 7 1
6 2 9 1
7 2 10 1
8 4 6 1
9 4 7 1
10 4 8 1
11 5 7 1
12 5 11 1
13 5 12 1
14 7 13 1
