# Title
# Created by GaussView 6.0.16
#

#
#

@<TRIPOS>MOLECULE
Molecule Name
5 4
SMALL
NO_CHARGES


@<TRIPOS>ATOM
1 Pt1    -0.0665    -0.5096     0.0000 Pt
2 Cl2     2.2135    -0.5096     0.0000 Cl
3 Cl3    -0.0665     1.7704     0.0000 Cl
4 Cl4    -2.3465    -0.5096     0.0000 Cl
5 Cl5    -0.0665    -2.7896     0.0000 Cl
@<TRIPOS>BOND
1 1 2 1
2 1 3 1
3 1 4 1
4 1 5 1
