# http://pg.minglab.cn/static/model/D5_Ferrocene(twisted).mol
# Created by GaussView 5.0.9
#

#
#

@<TRIPOS>MOLECULE
Molecule Name
21 20
SMALL
NO_CHARGES


@<TRIPOS>ATOM
1 C1     0.1459    -1.1963    -1.6816 C
2 H2     0.2913    -2.2676    -1.6530 H
3 C3    -1.1113    -0.5193    -1.6663 C
4 H4    -2.0851    -0.9884    -1.6245 H
5 C5    -0.8561     0.8856    -1.6625 C
6 H6    -1.6026     1.6670    -1.6173 H
7 C7     1.1782    -0.2096    -1.6872 C
8 H8     2.2420    -0.4030    -1.6637 H
9 C9     0.5589     1.0770    -1.6755 C
10 H10     1.0717     2.0287    -1.6414 H
11 C11    -0.1370    -1.2124     1.6700 C
12 H12    -0.2746    -2.2845     1.6313 H
13 C13    -1.1762    -0.2332     1.6854 C
14 H14    -2.2388    -0.4338     1.6605 H
15 C15    -0.5661     1.0579     1.6858 C
16 H16    -1.0856     2.0062     1.6613 H
17 C17     1.1155    -0.5265     1.6610 C
18 H18     2.0924    -0.9882     1.6142 H
19 C19     0.8503     0.8765     1.6708 C
20 H20     1.5912     1.6635     1.6326 H
21 Fe21    -0.0006     0.0000     0.0000 Fe
@<TRIPOS>BOND
1 1 2 1
2 1 3 Ar
3 1 7 Ar
4 3 4 1
5 3 5 Ar
6 5 6 1
7 5 9 Ar
8 7 8 1
9 7 9 Ar
10 9 10 1
11 11 12 1
12 11 13 Ar
13 11 17 Ar
14 13 14 1
15 13 15 Ar
16 15 16 1
17 15 19 Ar
18 17 18 1
19 17 19 Ar
20 19 20 1
