# http://pg.minglab.cn/static/model/corannulene_AV.mol
# Created by GaussView 5.0.9
#

#
#

@<TRIPOS>MOLECULE
Molecule Name
30 35
SMALL
NO_CHARGES


@<TRIPOS>ATOM
1 C1    -1.0535    -0.2369     0.0078 C
2 C2    -1.2723     1.0946     0.0067 C
3 C3    -0.0737     1.7141    -0.0027 C
4 C4     0.8859     0.7655    -0.0075 C
5 C5     0.2804    -0.4402    -0.0009 C
6 C6    -2.0170    -1.2117     0.0162 C
7 C7    -3.3452    -0.6627     0.0242 C
8 C8    -3.5798     0.7646     0.0230 C
9 C9    -2.4971     1.7097     0.0138 C
10 C10    -2.3855     3.1425     0.0101 C
11 C11     0.1328     3.0691    -0.0069 C
12 C12     1.5300     3.4057    -0.0171 C
13 C13     2.2384     0.9878    -0.0172 C
14 C14     2.3411    -1.5296    -0.0130 C
15 C15     0.9097    -1.6578    -0.0029 C
16 C16    -0.0228    -2.7514     0.0056 C
17 C17    -1.4527    -2.5334     0.0149 C
18 H18    -4.1982    -1.3377     0.0312 H
19 H19    -4.6039     1.1311     0.0292 H
20 C20    -1.1006     3.8067     0.0001 C
21 C21     2.5587     2.3888    -0.0222 C
22 C22     2.9903    -0.2370    -0.0200 C
23 H23     4.0771    -0.1923    -0.0276 H
24 H24     2.9542    -2.4281    -0.0156 H
25 H25     1.8233     4.4532    -0.0213 H
26 H26     3.6027     2.6943    -0.0300 H
27 H27    -1.0685     4.8941    -0.0023 H
28 H28    -3.2911     3.7453     0.0151 H
29 H29     0.3556    -3.7713     0.0048 H
30 H30    -2.1177    -3.3942     0.0210 H
@<TRIPOS>BOND
1 1 2 Ar
2 1 5 Ar
3 1 6 Ar
4 2 3 Ar
5 2 9 Ar
6 3 4 Ar
7 3 11 Ar
8 4 5 Ar
9 4 13 Ar
10 5 15 Ar
11 6 7 Ar
12 6 17 Ar
13 7 8 Ar
14 7 18 1
15 8 9 Ar
16 8 19 1
17 9 10 Ar
18 10 20 Ar
19 10 28 1
20 11 12 Ar
21 11 20 Ar
22 12 21 Ar
23 12 25 1
24 13 21 Ar
25 13 22 Ar
26 14 15 Ar
27 14 22 Ar
28 14 24 1
29 15 16 Ar
30 16 17 Ar
31 16 29 1
32 17 30 1
33 20 27 1
34 21 26 1
35 22 23 1
