# generated by VMD
# Created by GaussView 6.0.16
#

#
#

@<TRIPOS>MOLECULE
Molecule Name
21 20
SMALL
NO_CHARGES


@<TRIPOS>ATOM
1 Os1     0.0000     0.0000     0.0000 Os
2 C2    -0.8095     0.8756    -1.8438 C
3 C3     0.6522     1.0494    -1.8153 C
4 C4     1.2684    -0.2869    -1.7693 C
5 C5    -0.8903     0.9623     1.7615 C
6 C6     0.5714     1.1361     1.7901 C
7 C7     1.1876    -0.2002     1.8361 C
8 C8    -1.0967    -0.5681    -1.8155 C
9 C9     0.1876    -1.2866    -1.7695 C
10 C10    -1.1774    -0.4814     1.7898 C
11 C11     0.1068    -1.1999     1.8359 C
12 H12    -1.5423     1.6679    -1.8782 H
13 H13     1.1796     1.9915    -1.8250 H
14 H14     2.3271    -0.4969    -1.7395 H
15 H15    -1.6230     1.7545     1.7250 H
16 H16     1.0989     2.0781     1.7782 H
17 H17     2.2464    -0.4103     1.8638 H
18 H18    -2.0770    -1.0206    -1.8256 H
19 H19     0.3144    -2.3585    -1.7398 H
20 H20    -2.1577    -0.9339     1.7777 H
21 H21     0.2337    -2.2718     1.8634 H
@<TRIPOS>BOND
1 2 3 1
2 2 8 1
3 2 12 1
4 3 4 1
5 3 13 1
6 4 9 1
7 4 14 1
8 5 6 1
9 5 10 1
10 5 15 1
11 6 7 1
12 6 16 1
13 7 11 1
14 7 17 1
15 8 9 1
16 8 18 1
17 9 19 1
18 10 11 1
19 10 20 1
20 11 21 1
