# Title Card Required
# Created by GaussView 6.0.16
#

#
#

@<TRIPOS>MOLECULE
Molecule Name
14 14
SMALL
NO_CHARGES


@<TRIPOS>ATOM
1 C1     0.0000     1.2547     1.0000 C
2 C2    -0.9810     0.7823     1.0000 C
3 C3    -1.2233    -0.2792     1.0000 C
4 C4    -0.5444    -1.1305     1.0000 C
5 C5     0.5444    -1.1305     1.0000 C
6 C6     1.2233    -0.2792     1.0000 C
7 C7     0.9810     0.7823     1.0000 C
8 C8     0.5444     1.1305    -1.0000 C
9 C9    -0.5444     1.1305    -1.0000 C
10 C10    -1.2233     0.2792    -1.0000 C
11 C11    -0.9810    -0.7823    -1.0000 C
12 C12    -0.0000    -1.2547    -1.0000 C
13 C13     0.9810    -0.7823    -1.0000 C
14 C14     1.2233     0.2792    -1.0000 C
@<TRIPOS>BOND
1 1 2 3
2 1 7 3
3 2 3 3
4 3 4 3
5 4 5 3
6 5 6 3
7 6 7 3
8 8 9 3
9 8 14 3
10 9 10 3
11 10 11 3
12 11 12 3
13 12 13 3
14 13 14 3
