# 384444836
# Created by GaussView 6.0.16
#

#
#

@<TRIPOS>MOLECULE
Molecule Name
24 32
SMALL
NO_CHARGES


@<TRIPOS>ATOM
1 C1     1.4584    -1.4584    -0.0000 C
2 C2     0.0000    -2.0625    -0.0000 C
3 C3     2.0625     0.0000    -0.0000 C
4 C4     1.4584     1.4584    -0.0000 C
5 C5    -1.4584    -1.4584    -0.0000 C
6 C6     0.0000     2.0625    -0.0000 C
7 C7    -2.0625     0.0000    -0.0000 C
8 C8    -1.4584     1.4584    -0.0000 C
9 S9    -1.6209    -3.9131     0.0000 S
10 C10    -2.5223    -2.5223     0.0000 C
11 C11     0.0000    -3.5671     0.0000 C
12 C12     2.5223     2.5223     0.0000 C
13 S13     1.6209     3.9131     0.0000 S
14 C14     0.0000     3.5671     0.0000 C
15 S15    -3.9131     1.6209     0.0000 S
16 C16    -2.5223     2.5223     0.0000 C
17 C17    -3.5671     0.0000     0.0000 C
18 S18     3.9131    -1.6209     0.0000 S
19 C19     3.5671     0.0000     0.0000 C
20 C20     2.5223    -2.5223     0.0000 C
21 S21    -1.6209     3.9131     0.0000 S
22 S22     3.9131     1.6209     0.0000 S
23 S23     1.6209    -3.9131     0.0000 S
24 S24    -3.9131    -1.6209     0.0000 S
@<TRIPOS>BOND
1 1 2 1
2 1 3 1
3 1 20 2
4 2 5 1
5 2 11 2
6 3 4 1
7 3 19 2
8 4 12 2
9 4 6 1
10 5 7 1
11 5 10 2
12 6 8 1
13 6 14 2
14 7 8 1
15 7 17 2
16 8 16 2
17 9 10 1
18 9 11 1
19 10 24 1
20 11 23 1
21 12 13 1
22 12 22 1
23 13 14 1
24 14 21 1
25 15 16 1
26 15 17 1
27 16 21 1
28 17 24 1
29 18 19 1
30 18 20 1
31 19 22 1
32 20 23 1
