# Title Card Required
# Created by GaussView 6.0.16
#

#
#

@<TRIPOS>MOLECULE
Molecule Name
18 18
SMALL
NO_CHARGES


@<TRIPOS>ATOM
1 C1     0.6104     3.6417     0.0000 C
2 C2    -0.6104     3.6417     0.0000 C
3 C3    -1.8733     3.1821     0.0000 C
4 C4    -2.8084     2.3974     0.0000 C
5 C5    -3.4804     1.2335     0.0000 C
6 C6    -3.6924     0.0313     0.0000 C
7 C7    -3.4590    -1.2923     0.0000 C
8 C8    -2.8487    -2.3495     0.0000 C
9 C9    -1.8191    -3.2134     0.0000 C
10 C10    -0.6720    -3.6309     0.0000 C
11 C11     0.6720    -3.6309     0.0000 C
12 C12     1.8191    -3.2134     0.0000 C
13 C13     2.8487    -2.3495     0.0000 C
14 C14     3.4590    -1.2923     0.0000 C
15 C15     3.6924     0.0313     0.0000 C
16 C16     3.4804     1.2335     0.0000 C
17 C17     2.8084     2.3974     0.0000 C
18 C18     1.8733     3.1821     0.0000 C
@<TRIPOS>BOND
1 1 2 3
2 1 18 2
3 2 3 2
4 3 4 3
5 4 5 2
6 5 6 3
7 6 7 2
8 7 8 3
9 8 9 2
10 9 10 3
11 10 11 2
12 11 12 3
13 12 13 2
14 13 14 3
15 14 15 2
16 15 16 3
17 16 17 2
18 17 18 3
