# Title
# Created by GaussView 6.0.16
#

#
#

@<TRIPOS>MOLECULE
Molecule Name
60 90
SMALL
NO_CHARGES


@<TRIPOS>ATOM
1 C1    -0.4710     0.1704    -0.0789 C
2 C2     0.9929     0.1704    -0.0789 C
3 C3     1.6852     1.3696    -0.0789 C
4 C4     0.9532     2.6374    -0.0790 C
5 C5    -0.4315     2.6373    -0.0789 C
6 C6    -1.1634     1.3695    -0.0789 C
7 C7    -0.9234    -0.9360    -0.9241 C
8 C8     0.2609    -1.6197    -1.4464 C
9 C9     1.4453    -0.9359    -0.9241 C
10 C10     2.5655    -0.7832    -1.7236 C
11 C11     2.8695     1.5310    -0.9242 C
12 C12     1.6851     3.5823    -0.9242 C
13 C13     0.9927     4.4761    -1.7236 C
14 C14    -0.4712     4.4760    -1.7236 C
15 C15    -1.1635     3.5822    -0.9241 C
16 C16    -2.3478     2.8984    -1.4464 C
17 C17    -2.3477     1.5309    -0.9240 C
18 C18    -2.7756     0.4844    -1.7234 C
19 C19    -2.0436    -0.7833    -1.7235 C
20 C20     0.2609    -2.1138    -2.7400 C
21 C21    -0.9235    -1.9525    -3.5851 C
22 C22    -2.0437    -1.3057    -3.0910 C
23 C23    -2.7757    -0.3608    -3.9361 C
24 C24    -3.2281     0.7456    -3.0909 C
25 C25    -3.2281     2.0391    -3.5850 C
26 C26    -2.7757     3.1454    -2.7399 C
27 C27    -2.0439     4.0904    -3.5851 C
28 C28    -0.9236     4.7372    -3.0911 C
29 C29     2.8694     2.8986    -1.4466 C
30 C30     1.4450     3.7207    -5.7522 C
31 C31     2.5652     3.5681    -4.9528 C
32 C32     3.2972     2.3004    -4.9528 C
33 C33     2.8693     1.2539    -5.7522 C
34 C34     1.6850     1.4153    -6.5974 C
35 C35    -0.4713     2.6144    -6.5973 C
36 C36    -0.9237     3.7207    -5.7521 C
37 C37     0.2606     4.4045    -5.2298 C
38 C38     0.2607     4.8986    -3.9363 C
39 C39     1.4450     4.7372    -3.0911 C
40 C40     2.5652     4.0905    -3.5853 C
41 C41     3.7496     2.0392    -3.5853 C
42 C42     3.7496     0.7457    -3.0912 C
43 C43     3.2973    -0.3607    -3.9363 C
44 C44     2.8693    -0.1136    -5.2299 C
45 C45     1.6850    -0.7974    -5.7522 C
46 C46     0.9530     0.1475    -6.5973 C
47 C47    -0.4316     0.1474    -6.5973 C
48 C48    -1.1636     1.4152    -6.5973 C
49 C49    -2.0439     3.5680    -4.9526 C
50 C50    -2.7758     2.3002    -4.9526 C
51 C51    -2.3479     1.2538    -5.7520 C
52 C52    -2.3478    -0.1138    -5.2297 C
53 C53    -1.1635    -0.7975    -5.7521 C
54 C54    -0.4711    -1.6913    -4.9526 C
55 C55     0.9928    -1.6913    -4.9527 C
56 C56     1.4452    -1.9524    -3.5852 C
57 C57     2.5654    -1.3056    -3.0912 C
58 C58     3.2972     3.1456    -2.7401 C
59 C59     3.2973     0.4846    -1.7236 C
60 C60     0.9926     2.6144    -6.5973 C
@<TRIPOS>BOND
1 1 2 1
2 1 6 2
3 1 7 1
4 2 3 2
5 2 9 1
6 3 4 1
7 3 11 1
8 4 5 2
9 4 12 1
10 5 6 1
11 5 15 1
12 6 17 1
13 7 8 1
14 7 19 2
15 8 9 1
16 8 20 2
17 9 10 2
18 10 57 1
19 10 59 1
20 11 29 1
21 11 59 2
22 12 13 2
23 12 29 1
24 13 14 1
25 13 39 1
26 14 15 2
27 14 28 1
28 15 16 1
29 16 17 1
30 16 26 2
31 17 18 2
32 18 19 1
33 18 24 1
34 19 22 1
35 20 21 1
36 20 56 1
37 21 22 2
38 21 54 1
39 22 23 1
40 23 24 1
41 23 52 2
42 24 25 2
43 25 26 1
44 25 50 1
45 26 27 1
46 27 28 2
47 27 49 1
48 28 38 1
49 29 58 2
50 30 31 2
51 30 37 1
52 30 60 1
53 31 32 1
54 31 40 1
55 32 33 2
56 32 41 1
57 33 34 1
58 33 44 1
59 34 46 1
60 34 60 2
61 35 36 1
62 35 48 2
63 35 60 1
64 36 37 1
65 36 49 2
66 37 38 2
67 38 39 1
68 39 40 2
69 40 58 1
70 41 42 2
71 41 58 1
72 42 43 1
73 42 59 1
74 43 44 2
75 43 57 1
76 44 45 1
77 45 46 1
78 45 55 2
79 46 47 2
80 47 48 1
81 47 53 1
82 48 51 1
83 49 50 1
84 50 51 2
85 51 52 1
86 52 53 1
87 53 54 2
88 54 55 1
89 55 56 1
90 56 57 2
