# Molecule Name
# Created by GaussView 6.0.16
#

#
#

@<TRIPOS>MOLECULE
Molecule Name
40 44
SMALL
NO_CHARGES


@<TRIPOS>ATOM
1 C1     0.7636     0.7636     0.7636 C
2 C2     0.7636     0.7636    -0.7636 C
3 C3    -0.7636     0.7636    -0.7636 C
4 C4    -0.7636     0.7636     0.7636 C
5 C5     0.7636    -0.7636    -0.7636 C
6 C6    -0.7636    -0.7636    -0.7636 C
7 C7    -0.7636    -0.7636     0.7636 C
8 C8     0.7636    -0.7636     0.7636 C
9 C9    -1.6795    -1.6795     1.6795 C
10 H10    -1.4447    -2.7404     1.4447 H
11 H11    -1.4447    -1.4447     2.7404 H
12 H12    -2.7404    -1.4447     1.4447 H
13 C13     1.6795    -1.6795     1.6795 C
14 H14     1.4447    -2.7404     1.4447 H
15 H15     2.7404    -1.4447     1.4447 H
16 H16     1.4447    -1.4447     2.7404 H
17 C17    -1.6795     1.6795     1.6795 C
18 H18    -1.4447     2.7404     1.4447 H
19 H19    -2.7404     1.4447     1.4447 H
20 H20    -1.4447     1.4447     2.7404 H
21 C21     1.6795     1.6795     1.6795 C
22 H22     2.7404     1.4447     1.4447 H
23 H23     1.4447     2.7404     1.4447 H
24 H24     1.4447     1.4447     2.7404 H
25 C25     1.6795     1.6795    -1.6795 C
26 H26     2.7404     1.4447    -1.4447 H
27 H27     1.4447     1.4447    -2.7404 H
28 H28     1.4447     2.7404    -1.4447 H
29 C29    -1.6795     1.6795    -1.6795 C
30 H30    -1.4447     1.4447    -2.7404 H
31 H31    -2.7404     1.4447    -1.4447 H
32 H32    -1.4447     2.7404    -1.4447 H
33 C33    -1.6795    -1.6795    -1.6795 C
34 H34    -1.4447    -1.4447    -2.7404 H
35 H35    -1.4447    -2.7404    -1.4447 H
36 H36    -2.7404    -1.4447    -1.4447 H
37 C37     1.6795    -1.6795    -1.6795 C
38 H38     2.7404    -1.4447    -1.4447 H
39 H39     1.4447    -2.7404    -1.4447 H
40 H40     1.4447    -1.4447    -2.7404 H
@<TRIPOS>BOND
1 1 2 1
2 1 4 1
3 1 8 1
4 1 21 1
5 2 3 1
6 2 5 1
7 2 25 1
8 3 4 1
9 3 6 1
10 3 29 1
11 4 7 1
12 4 17 1
13 5 6 1
14 5 8 1
15 5 37 1
16 6 7 1
17 6 33 1
18 7 8 1
19 7 9 1
20 8 13 1
21 9 10 1
22 9 11 1
23 9 12 1
24 13 14 1
25 13 15 1
26 13 16 1
27 17 18 1
28 17 19 1
29 17 20 1
30 21 22 1
31 21 23 1
32 21 24 1
33 25 26 1
34 25 27 1
35 25 28 1
36 29 30 1
37 29 31 1
38 29 32 1
39 33 34 1
40 33 35 1
41 33 36 1
42 37 38 1
43 37 39 1
44 37 40 1
