# Molecule Name
# Created by GaussView 6.0.16
#

#
#

@<TRIPOS>MOLECULE
Molecule Name
24 24
SMALL
NO_CHARGES


@<TRIPOS>ATOM
1 C1     1.3068     0.6163    -0.2281 C
2 C2     0.1197     1.4398     0.2281 C
3 C3    -1.1871     0.8235    -0.2281 C
4 C4    -1.3068    -0.6163     0.2281 C
5 C5    -0.1197    -1.4398    -0.2281 C
6 C6     1.1871    -0.8235     0.2281 C
7 H7     0.1246     1.5111     1.3482 H
8 H8     1.3709     0.6476    -1.3482 H
9 H9    -1.3709    -0.6476     1.3482 H
10 H10    -0.1246    -1.5111    -1.3482 H
11 H11     1.2463    -0.8635     1.3482 H
12 H12    -1.2463     0.8635    -1.3482 H
13 O13     2.2830    -1.5837    -0.2877 O
14 H14     3.1098    -1.1915     0.0025 H
15 O15     2.5131     1.1853     0.2877 O
16 H16     2.5868     2.0974    -0.0025 H
17 O17     0.2300     2.7690    -0.2877 O
18 H18    -0.5230     3.2890     0.0025 H
19 O19    -2.2830     1.5837     0.2877 O
20 H20    -3.1098     1.1915    -0.0025 H
21 O21    -2.5131    -1.1853    -0.2877 O
22 H22    -2.5868    -2.0974     0.0025 H
23 O23    -0.2300    -2.7690     0.2877 O
24 H24     0.5230    -3.2890    -0.0025 H
@<TRIPOS>BOND
1 1 2 1
2 1 6 1
3 1 8 1
4 1 15 1
5 2 3 1
6 2 7 1
7 2 17 1
8 3 4 1
9 3 12 1
10 3 19 1
11 4 5 1
12 4 9 1
13 4 21 1
14 5 6 1
15 5 10 1
16 5 23 1
17 6 11 1
18 6 13 1
19 13 14 1
20 15 16 1
21 17 18 1
22 19 20 1
23 21 22 1
24 23 24 1
