# Molecule Name
# Created by GaussView 6.0.16
#

#
#

@<TRIPOS>MOLECULE
Molecule Name
32 32
SMALL
NO_CHARGES


@<TRIPOS>ATOM
1 C1     1.4584    -1.4584     0.0000 C
2 C2     0.0000    -2.0625     0.0000 C
3 C3     2.0625     0.0000     0.0000 C
4 C4     1.4584     1.4584     0.0000 C
5 C5    -1.4584    -1.4584     0.0000 C
6 C6     0.0000     2.0625     0.0000 C
7 C7    -2.0625     0.0000     0.0000 C
8 C8    -1.4584     1.4584     0.0000 C
9 S9    -1.6209    -3.9131     0.0000 S
10 C10    -2.5223    -2.5223     0.0000 C
11 C11     0.0000    -3.5671     0.0000 C
12 C12     2.5223     2.5223     0.0000 C
13 S13     1.6209     3.9131     0.0000 S
14 C14     0.0000     3.5671     0.0000 C
15 S15    -3.9131     1.6209     0.0000 S
16 C16    -2.5223     2.5223     0.0000 C
17 C17    -3.5671     0.0000     0.0000 C
18 S18     3.9131    -1.6209     0.0000 S
19 C19     3.5671     0.0000     0.0000 C
20 C20     2.5223    -2.5223     0.0000 C
21 S21    -1.6209     3.9131     0.0000 S
22 S22     3.9131     1.6209     0.0000 S
23 S23     1.6209    -3.9131     0.0000 S
24 S24    -3.9131    -1.6209     0.0000 S
25 H25    -0.0915     0.9958    -0.9000 H
26 H26     0.6394     0.7688     0.9000 H
27 H27     0.9958     0.0915    -0.9000 H
28 H28     0.7688    -0.6394     0.9000 H
29 H29     0.0915    -0.9958    -0.9000 H
30 H30    -0.6394    -0.7688     0.9000 H
31 H31    -0.9958    -0.0915    -0.9000 H
32 H32    -0.7688     0.6394     0.9000 H
@<TRIPOS>BOND
1 1 2 1
2 1 3 1
3 1 20 1
4 2 5 1
5 2 11 1
6 3 4 1
7 3 19 1
8 4 6 1
9 4 12 1
10 5 7 1
11 5 10 1
12 6 8 1
13 6 14 1
14 7 8 1
15 7 17 1
16 8 16 1
17 9 10 Ar
18 9 11 Ar
19 10 24 Ar
20 11 23 Ar
21 12 13 Ar
22 12 22 Ar
23 13 14 Ar
24 14 21 Ar
25 15 16 Ar
26 15 17 Ar
27 16 21 Ar
28 17 24 Ar
29 18 19 Ar
30 18 20 Ar
31 19 22 Ar
32 20 23 Ar
