# Molecule Name
# Created by GaussView 6.0.16
#

#
#

@<TRIPOS>MOLECULE
Molecule Name
19 18
SMALL
NO_CHARGES


@<TRIPOS>ATOM
1 N1     0.0000     1.7177    -1.2146 N
2 Fe2    -0.0000     0.0000     0.0000 Fe
3 N3    -0.0000    -1.7177     1.2146 N
4 N4     1.4876    -0.8589    -1.2146 N
5 N5    -1.4876     0.8589     1.2146 N
6 N6    -1.4876    -0.8589    -1.2146 N
7 N7     1.4876     0.8589     1.2146 N
8 O8    -1.1522     1.6144     2.2831 O
9 O9    -2.7962     0.6652     0.9408 O
10 O10     2.7962    -0.6652    -0.9408 O
11 O11    -0.8220    -1.8050     2.2831 O
12 O12     0.8220    -2.7542     0.9408 O
13 O13     1.9742     2.0890     0.9408 O
14 O14     1.9742     0.1906     2.2831 O
15 O15    -1.9742    -0.1906    -2.2831 O
16 O16     1.1522    -1.6144    -2.2831 O
17 O17    -0.8220     2.7542    -0.9408 O
18 O18     0.8220     1.8050    -2.2831 O
19 O19    -1.9742    -2.0890    -0.9408 O
@<TRIPOS>BOND
1 1 17 Ar
2 1 18 Ar
3 1 2 1
4 2 7 1
5 2 3 1
6 2 6 1
7 2 5 1
8 2 4 1
9 3 11 Ar
10 3 12 Ar
11 4 10 Ar
12 4 16 Ar
13 5 8 Ar
14 5 9 Ar
15 6 15 Ar
16 6 19 Ar
17 7 13 Ar
18 7 14 Ar
